[Format]      =  4.0
[Frequency]   =  0
[Precision]   =  1e-008
[MinAngle]    =  30
[DoSmartMesh] =  1
[Depth]       =  1
[LengthUnits] =  millimeters
[ProblemType] =  planar
[Coordinates] =  cartesian
[ACSolver]    =  0
[PrevType]    =  0
[PrevSoln]    =  ""
[Comment]     =  "Add comments here."
[PointProps]   = 0
[BdryProps]   = 0
[BlockProps]  = 11
  <BeginBlock>
    <BlockName> = "Air"
    <Mu_x> = 1
    <Mu_y> = 1
    <H_c> = 0
    <H_cAngle> = 0
    <J_re> = 0
    <J_im> = 0
    <Sigma> = 0
    <d_lam> = 0
    <Phi_h> = 0
    <Phi_hx> = 0
    <Phi_hy> = 0
    <LamType> = 0
    <LamFill> = 1
    <NStrands> = 0
    <WireD> = 0
    <BHPoints> = 0
  <EndBlock>
  <BeginBlock>
    <BlockName> = "18 AWG"
    <Mu_x> = 1
    <Mu_y> = 1
    <H_c> = 0
    <H_cAngle> = 0
    <J_re> = 0
    <J_im> = 0
    <Sigma> = 58
    <d_lam> = 0
    <Phi_h> = 0
    <Phi_hx> = 0
    <Phi_hy> = 0
    <LamType> = 3
    <LamFill> = 1
    <NStrands> = 1
    <WireD> = 1.0239652968433499
    <BHPoints> = 0
  <EndBlock>
  <BeginBlock>
    <BlockName> = "N40"
    <Mu_x> = 1.044
    <Mu_y> = 1.044
    <H_c> = 963000
    <H_cAngle> = 0
    <J_re> = 0
    <J_im> = 0
    <Sigma> = 555000
    <d_lam> = 0
    <Phi_h> = 0
    <Phi_hx> = 0
    <Phi_hy> = 0
    <LamType> = 0
    <LamFill> = 1
    <NStrands> = 0
    <WireD> = 0
    <BHPoints> = 0
  <EndBlock>
  <BeginBlock>
    <BlockName> = "M19_29Ga"
    <Mu_x> = 0
    <Mu_y> = 0
    <H_c> = 0
    <H_cAngle> = 0
    <J_re> = 0
    <J_im> = 0
    <Sigma> = 0
    <d_lam> = 0.35999999999999999
    <Phi_h> = 0
    <Phi_hx> = 0
    <Phi_hy> = 0
    <LamType> = 0
    <LamFill> = 0.91000000000000003
    <NStrands> = 0
    <WireD> = 0
    <BHPoints> = 187
      0	0
      0.51870000000000005	49
      0.66139999999999999	63
      0.72040000000000004	69
      0.76580000000000004	74
      0.80400000000000005	78
      0.83760000000000001	82
      0.86809999999999998	86
      0.89610000000000001	90
      0.92210000000000003	94
      0.9466	98
      0.96970000000000001	102
      0.99170000000000003	106
      1.0127999999999999	110
      1.0328999999999999	114
      1.0524	119
      1.0710999999999999	124
      1.0891999999999999	128
      1.1068	134
      1.1237999999999999	139
      1.1404000000000001	145
      1.1565000000000001	151
      1.1722999999999999	157
      1.1877	164
      1.2027000000000001	172
      1.2174	180
      1.2318	189
      1.2459	199
      1.2598	209
      1.2734000000000001	221
      1.2867	234
      1.2999000000000001	248
      1.3128	264
      1.3254999999999999	282
      1.3380000000000001	302
      1.3503000000000001	324
      1.3625	349
      1.3744000000000001	377
      1.3862000000000001	409
      1.3978999999999999	446
      1.4094	486
      1.4207000000000001	532
      1.4319	584
      1.4430000000000001	641
      1.4539	705
      1.4646999999999999	776
      1.4754	855
      1.486	942
      1.4964999999999999	1037
      1.5067999999999999	1141
      1.5169999999999999	1256
      1.5271999999999999	1380
      1.5371999999999999	1515
      1.5471999999999999	1661
      1.5569999999999999	1818
      1.5667	1987
      1.5764	2167
      1.5860000000000001	2357
      1.5954999999999999	2558
      1.6049	2769
      1.6142000000000001	2990
      1.6234	3220
      1.6326000000000001	3459
      1.6416999999999999	3706
      1.6507000000000001	3961
      1.6597	4224
      1.6685000000000001	4495
      1.6773	4773
      1.6860999999999999	5058
      1.6948000000000001	5352
      1.7034	5653
      1.7119	5962
      1.7203999999999999	6280
      1.7289000000000001	6606
      1.7372000000000001	6942
      1.7456	7286
      1.7538	7641
      1.762	8007
      1.7702	8384
      1.7783	8773
      1.7863	9175
      1.7943	9590
      1.8023	10020
      1.8102	10466
      1.8180000000000001	10929
      1.8258000000000001	11409
      1.8335999999999999	11909
      1.8412999999999999	12430
      1.849	12972
      1.8566	13539
      1.8642000000000001	14132
      1.8716999999999999	14752
      1.8792	15402
      1.8867	16085
      1.8940999999999999	16802
      1.9014	17557
      1.9088000000000001	18353
      1.9160999999999999	19192
      1.9233	20078
      1.9306000000000001	21016
      1.9377	22008
      1.9449000000000001	23059
      1.952	24174
      1.9591000000000001	25357
      1.9661	26614
      1.9731000000000001	27948
      1.9801	29367
      1.9870000000000001	30873
      1.994	32474
      2.0007999999999999	34174
      2.0076999999999998	35978
      2.0145	37891
      2.0213000000000001	39915
      2.028	42056
      2.0348000000000002	44315
      2.0413999999999999	46694
      2.0480999999999998	49194
      2.0547	51814
      2.0613999999999999	54555
      2.0678999999999998	57412
      2.0745	60385
      2.081	63468
      2.0874999999999999	66657
      2.0939999999999999	69947
      2.1004	73333
      2.1067999999999998	76809
      2.1132	80369
      2.1196000000000002	84007
      2.1259000000000001	87716
      2.1322000000000001	91492
      2.1385000000000001	95328
      2.1448	99220
      2.1509999999999998	103162
      2.1573000000000002	107149
      2.1634000000000002	111177
      2.1696	115242
      2.1758000000000002	119339
      2.1819000000000002	123466
      2.1880000000000002	127619
      2.1941000000000002	131794
      2.2000999999999999	135990
      2.2061999999999999	140203
      2.2122000000000002	144432
      2.2181999999999999	148673
      2.2242000000000002	152926
      2.2301000000000002	157188
      2.2360000000000002	161458
      2.242	165734
      2.2477999999999998	170015
      2.2536999999999998	174300
      2.2595999999999998	178587
      2.2654000000000001	182876
      2.2711999999999999	187166
      2.2770000000000001	191455
      2.2827999999999999	195743
      2.2885	200030
      2.2942999999999998	204314
      2.2999999999999998	208595
      2.3056999999999999	212872
      2.3113999999999999	217146
      2.3170000000000002	221415
      2.3227000000000002	225679
      2.3283	229938
      2.3338999999999999	234191
      2.3395000000000001	238438
      2.3451	242679
      2.3506999999999998	246914
      2.3561999999999999	251142
      2.3616999999999999	255362
      2.3672	259576
      2.3727	263783
      2.3782000000000001	267982
      2.3837000000000002	272173
      2.3891	276357
      2.3944999999999999	280533
      2.3999999999999999	284701
      2.4053	288860
      2.4106999999999998	293012
      2.4161000000000001	297155
      2.4215	301290
      2.4268000000000001	305417
      2.4321000000000002	309536
      2.4373999999999998	313646
      2.4426999999999999	317747
      2.448	321840
      2.4533	325924
      2.4584999999999999	330000
  <EndBlock>
  <BeginBlock>
    <BlockName> = "u1"
    <Mu_x> = 0.37737277525645235
    <Mu_y> = 0.37737277525645235
    <H_c> = 0
    <H_cAngle> = 0
    <J_re> = 0
    <J_im> = 0
    <Sigma> = 0
    <d_lam> = 0
    <Phi_h> = 0
    <Phi_hx> = 0
    <Phi_hy> = 0
    <LamType> = 0
    <LamFill> = 1
    <NStrands> = 0
    <WireD> = 0
    <BHPoints> = 0
  <EndBlock>
  <BeginBlock>
    <BlockName> = "u2"
    <Mu_x> = 7.7200304346442108
    <Mu_y> = 7.7200304346442108
    <H_c> = 0
    <H_cAngle> = 0
    <J_re> = 0
    <J_im> = 0
    <Sigma> = 0
    <d_lam> = 0
    <Phi_h> = 0
    <Phi_hx> = 0
    <Phi_hy> = 0
    <LamType> = 0
    <LamFill> = 1
    <NStrands> = 0
    <WireD> = 0
    <BHPoints> = 0
  <EndBlock>
  <BeginBlock>
    <BlockName> = "u3"
    <Mu_x> = 0.069449425895143593
    <Mu_y> = 0.069449425895143593
    <H_c> = 0
    <H_cAngle> = 0
    <J_re> = 0
    <J_im> = 0
    <Sigma> = 0
    <d_lam> = 0
    <Phi_h> = 0
    <Phi_hx> = 0
    <Phi_hy> = 0
    <LamType> = 0
    <LamFill> = 1
    <NStrands> = 0
    <WireD> = 0
    <BHPoints> = 0
  <EndBlock>
  <BeginBlock>
    <BlockName> = "u4"
    <Mu_x> = 23.31949550539958
    <Mu_y> = 23.31949550539958
    <H_c> = 0
    <H_cAngle> = 0
    <J_re> = 0
    <J_im> = 0
    <Sigma> = 0
    <d_lam> = 0
    <Phi_h> = 0
    <Phi_hx> = 0
    <Phi_hy> = 0
    <LamType> = 0
    <LamFill> = 1
    <NStrands> = 0
    <WireD> = 0
    <BHPoints> = 0
  <EndBlock>
  <BeginBlock>
    <BlockName> = "u5"
    <Mu_x> = 0.026883543752277105
    <Mu_y> = 0.026883543752277105
    <H_c> = 0
    <H_cAngle> = 0
    <J_re> = 0
    <J_im> = 0
    <Sigma> = 0
    <d_lam> = 0
    <Phi_h> = 0
    <Phi_hx> = 0
    <Phi_hy> = 0
    <LamType> = 0
    <LamFill> = 1
    <NStrands> = 0
    <WireD> = 0
    <BHPoints> = 0
  <EndBlock>
  <BeginBlock>
    <BlockName> = "u6"
    <Mu_x> = 63.839650875508823
    <Mu_y> = 63.839650875508823
    <H_c> = 0
    <H_cAngle> = 0
    <J_re> = 0
    <J_im> = 0
    <Sigma> = 0
    <d_lam> = 0
    <Phi_h> = 0
    <Phi_hx> = 0
    <Phi_hy> = 0
    <LamType> = 0
    <LamFill> = 1
    <NStrands> = 0
    <WireD> = 0
    <BHPoints> = 0
  <EndBlock>
  <BeginBlock>
    <BlockName> = "u7"
    <Mu_x> = 0.0070407582729502555
    <Mu_y> = 0.0070407582729502555
    <H_c> = 0
    <H_cAngle> = 0
    <J_re> = 0
    <J_im> = 0
    <Sigma> = 0
    <d_lam> = 0
    <Phi_h> = 0
    <Phi_hx> = 0
    <Phi_hy> = 0
    <LamType> = 0
    <LamFill> = 1
    <NStrands> = 0
    <WireD> = 0
    <BHPoints> = 0
  <EndBlock>
[CircuitProps]  = 3
  <BeginCircuit>
    <CircuitName> = "U"
    <TotalAmps_re> = -5.2437298040915694
    <TotalAmps_im> = -0
    <CircuitType> = 1
  <EndCircuit>
  <BeginCircuit>
    <CircuitName> = "V"
    <TotalAmps_re> = 0.43493669200135449
    <TotalAmps_im> = 0
    <CircuitType> = 1
  <EndCircuit>
  <BeginCircuit>
    <CircuitName> = "W"
    <TotalAmps_re> = 4.8087931120902123
    <TotalAmps_im> = 0
    <CircuitType> = 1
  <EndCircuit>
[NumPoints] = 191
97.531420654845135	-26.133465401125871	0	0
100.87125268019864	-4.5084821782627706	0	0
89.611308421742564	-46.531166241214351	0	0
102.80310433277677	-5.0261202684678139	0	0
91.543160074320696	-47.048804331419397	0	0
104.3270957099015	-11.617606583345172	0	0
96.158718479497821	-42.102405422600491	0	0
118.36316045728142	-15.378558797316572	0	0
132.36870444031896	-19.131332997130052	0	0
110.19478322687775	-45.863357636571891	0	0
124.20032720991529	-49.616131836385371	0	0
133.744090775838	0	0	0
115.82578021792773	-66.872045387919002	0	0
119.35802371067759	0	0	0
103.36708067895215	-59.679011855338786	0	0
97.531420654845149	26.133465401125868	0	0
89.611308421742564	46.531166241214343	0	0
100.87125268019865	4.5084821782627706	0	0
91.543160074320696	47.048804331419404	0	0
102.80310433277677	5.0261202684678139	0	0
96.158718479497821	42.102405422600484	0	0
104.3270957099015	11.617606583345175	0	0
110.19478322687775	45.863357636571884	0	0
124.20032720991529	49.61613183638535	0	0
118.36316045728142	15.378558797316568	0	0
132.36870444031896	19.131332997130041	0	0
115.82578021792773	66.872045387918988	0	0
103.36708067895216	59.679011855338771	0	0
71.397955253719275	71.39795525371926	0	0
54.340086438984301	85.102826243479782	0	0
85.102826243479782	54.340086438984272	0	0
55.754300001357393	86.517039805852875	0	0
86.517039805852889	55.754300001357365	0	0
62.224690287301016	84.541111896152643	0	0
84.541111896152643	62.224690287300994	0	0
72.499802820709533	94.816224429561146	0	0
82.752572603933601	105.06899421278523	0	0
94.81622442956116	72.499802820709533	0	0
105.06899421278521	82.752572603933572	0	0
66.872045387919016	115.82578021792773	0	0
59.6790118553388	103.36708067895215	0	0
26.133465401125878	97.531420654845135	0	0
4.5084821782627778	100.87125268019864	0	0
46.531166241214365	89.61130842174255	0	0
5.026120268467821	102.80310433277677	0	0
47.048804331419404	91.543160074320681	0	0
11.617606583345179	104.3270957099015	0	0
42.102405422600498	96.158718479497821	0	0
15.378558797316579	118.36316045728142	0	0
19.131332997130059	132.36870444031896	0	0
45.863357636571898	110.19478322687775	0	0
49.616131836385378	124.20032720991529	0	0
7.1054273576010019e-015	133.744090775838	0	0
7.1054273576010019e-015	119.35802371067757	0	0
-26.133465401125854	97.531420654845135	0	0
-46.531166241214329	89.611308421742564	0	0
-4.50848217826276	100.87125268019864	0	0
-47.04880433141939	91.543160074320696	0	0
-5.0261202684677997	102.80310433277677	0	0
-42.102405422600469	96.158718479497821	0	0
-11.617606583345161	104.3270957099015	0	0
-45.86335763657187	110.19478322687775	0	0
-49.616131836385335	124.20032720991527	0	0
-15.378558797316547	118.36316045728142	0	0
-19.131332997130027	132.36870444031896	0	0
-66.872045387918973	115.82578021792773	0	0
-59.679011855338743	103.36708067895216	0	0
-71.397955253719275	71.39795525371926	0	0
-85.102826243479782	54.340086438984272	0	0
-54.340086438984308	85.102826243479768	0	0
-86.517039805852875	55.754300001357372	0	0
-55.754300001357393	86.517039805852875	0	0
-84.541111896152643	62.224690287301001	0	0
-62.22469028730103	84.541111896152628	0	0
-94.816224429561174	72.499802820709519	0	0
-105.06899421278524	82.752572603933572	0	0
-72.499802820709562	94.816224429561146	0	0
-82.752572603933601	105.0689942127852	0	0
-115.82578021792773	66.872045387919002	0	0
-103.36708067895216	59.679011855338786	0	0
-97.531420654845135	26.133465401125882	0	0
-100.87125268019864	4.5084821782627813	0	0
-89.61130842174255	46.531166241214365	0	0
-102.80310433277677	5.0261202684678246	0	0
-91.543160074320681	47.048804331419404	0	0
-104.3270957099015	11.617606583345184	0	0
-96.158718479497807	42.102405422600498	0	0
-118.36316045728142	15.378558797316586	0	0
-132.36870444031896	19.131332997130066	0	0
-110.19478322687773	45.863357636571905	0	0
-124.20032720991527	49.616131836385385	0	0
-133.744090775838	1.4210854715202004e-014	0	0
-119.35802371067757	1.4210854715202004e-014	0	0
-97.531420654845135	-26.133465401125893	0	0
-89.61130842174255	-46.531166241214365	0	0
-100.87125268019865	-4.508482178262792	0	0
-91.543160074320667	-47.048804331419419	0	0
-102.80310433277677	-5.0261202684678352	0	0
-96.158718479497793	-42.102405422600505	0	0
-104.3270957099015	-11.617606583345189	0	0
-110.19478322687775	-45.863357636571905	0	0
-124.20032720991526	-49.616131836385385	0	0
-118.36316045728142	-15.378558797316593	0	0
-132.36870444031896	-19.13133299713007	0	0
-115.82578021792771	-66.87204538791903	0	0
-103.36708067895214	-59.6790118553388	0	0
-71.397955253719289	-71.397955253719232	0	0
-54.340086438984329	-85.10282624347974	0	0
-85.102826243479797	-54.340086438984244	0	0
-55.754300001357421	-86.517039805852846	0	0
-86.517039805852903	-55.754300001357336	0	0
-62.224690287301051	-84.541111896152614	0	0
-84.541111896152657	-62.224690287300973	0	0
-72.499802820709576	-94.816224429561132	0	0
-82.752572603933643	-105.06899421278519	0	0
-94.816224429561203	-72.499802820709476	0	0
-105.06899421278526	-82.752572603933544	0	0
-66.872045387919059	-115.82578021792767	0	0
-59.679011855338842	-103.36708067895212	0	0
-26.133465401125889	-97.531420654845135	0	0
-4.5084821782627884	-100.87125268019864	0	0
-46.531166241214372	-89.61130842174255	0	0
-5.0261202684678317	-102.80310433277677	0	0
-47.048804331419419	-91.543160074320681	0	0
-11.617606583345191	-104.3270957099015	0	0
-42.102405422600512	-96.158718479497807	0	0
-15.378558797316593	-118.36316045728142	0	0
-19.131332997130077	-132.36870444031896	0	0
-45.863357636571912	-110.19478322687773	0	0
-49.616131836385392	-124.20032720991527	0	0
-2.1316282072803006e-014	-133.744090775838	0	0
-2.1316282072803006e-014	-119.35802371067757	0	0
26.133465401125893	-97.531420654845135	0	0
46.531166241214365	-89.61130842174255	0	0
4.508482178262792	-100.87125268019865	0	0
47.048804331419419	-91.543160074320667	0	0
5.0261202684678352	-102.80310433277677	0	0
42.102405422600505	-96.158718479497793	0	0
11.617606583345189	-104.3270957099015	0	0
45.863357636571905	-110.19478322687775	0	0
49.616131836385385	-124.20032720991526	0	0
15.378558797316593	-118.36316045728142	0	0
19.13133299713007	-132.36870444031896	0	0
66.87204538791903	-115.82578021792771	0	0
59.6790118553388	-103.36708067895214	0	0
71.397955253719232	-71.397955253719289	0	0
85.10282624347974	-54.340086438984329	0	0
54.340086438984244	-85.102826243479797	0	0
86.517039805852846	-55.754300001357421	0	0
55.754300001357336	-86.517039805852903	0	0
84.541111896152614	-62.224690287301051	0	0
62.224690287300973	-84.541111896152657	0	0
94.816224429561132	-72.499802820709576	0	0
105.06899421278519	-82.752572603933643	0	0
72.499802820709476	-94.816224429561203	0	0
82.752572603933544	-105.06899421278526	0	0
173.8666487320323	-46.58742811845373	0	0
-173.8666487320323	46.587428118453751	0	0
20.919900851359802	-91.656074318252749	0	10
79.603235441121427	-50.018027933627934	0	10
-50.018027933627934	-79.603235441121427	0	10
21.769943891042605	-95.380356214828581	0	10
82.837771622900632	-52.050421720086874	0	10
-52.050421720086874	-82.837771622900632	0	10
91.656074318252749	20.919900851359802	0	10
50.018027933627934	79.603235441121427	0	10
95.380356214828581	21.769943891042605	0	10
52.050421720086874	82.837771622900632	0	10
-20.919900851359802	91.656074318252749	0	10
-79.603235441121441	50.018027933627977	0	10
-21.769943891042569	95.380356214828595	0	10
-82.837771622900647	52.050421720086909	0	10
-91.656074318252763	-20.919900851359774	0	10
-95.380356214828609	-21.769943891042601	0	10
3.1622126635442437e-015	-1.3854558917811119e-014	0	10
0	270	0	0
0	-270	0	0
0	-273.85714285714289	0	0
0	273.85714285714289	0	0
0	-277.71428571428572	0	0
0	277.71428571428572	0	0
0	-281.57142857142861	0	0
0	281.57142857142861	0	0
0	-285.42857142857144	0	0
0	285.42857142857144	0	0
0	-289.28571428571428	0	0
0	289.28571428571428	0	0
0	-293.14285714285717	0	0
0	293.14285714285717	0	0
0	-297.00000000000006	0	0
0	297.00000000000006	0	0
[NumSegments] = 100
1	3	-1	0	0	0
2	4	-1	0	0	0
3	5	-1	0	0	0
4	6	-1	0	0	0
5	7	-1	0	0	0
7	8	-1	0	0	0
6	9	-1	0	0	0
9	10	-1	0	0	0
16	18	-1	0	0	0
17	19	-1	0	0	0
18	20	-1	0	0	0
19	21	-1	0	0	0
20	22	-1	0	0	0
22	23	-1	0	0	0
21	24	-1	0	0	0
24	25	-1	0	0	0
29	31	-1	0	0	0
30	32	-1	0	0	0
31	33	-1	0	0	0
32	34	-1	0	0	0
33	35	-1	0	0	0
35	36	-1	0	0	0
34	37	-1	0	0	0
37	38	-1	0	0	0
42	44	-1	0	0	0
43	45	-1	0	0	0
44	46	-1	0	0	0
45	47	-1	0	0	0
46	48	-1	0	0	0
48	49	-1	0	0	0
47	50	-1	0	0	0
50	51	-1	0	0	0
55	57	-1	0	0	0
56	58	-1	0	0	0
57	59	-1	0	0	0
58	60	-1	0	0	0
59	61	-1	0	0	0
61	62	-1	0	0	0
60	63	-1	0	0	0
63	64	-1	0	0	0
68	70	-1	0	0	0
69	71	-1	0	0	0
70	72	-1	0	0	0
71	73	-1	0	0	0
72	74	-1	0	0	0
74	75	-1	0	0	0
73	76	-1	0	0	0
76	77	-1	0	0	0
81	83	-1	0	0	0
82	84	-1	0	0	0
83	85	-1	0	0	0
84	86	-1	0	0	0
85	87	-1	0	0	0
87	88	-1	0	0	0
86	89	-1	0	0	0
89	90	-1	0	0	0
94	96	-1	0	0	0
95	97	-1	0	0	0
96	98	-1	0	0	0
97	99	-1	0	0	0
98	100	-1	0	0	0
100	101	-1	0	0	0
99	102	-1	0	0	0
102	103	-1	0	0	0
107	109	-1	0	0	0
108	110	-1	0	0	0
109	111	-1	0	0	0
110	112	-1	0	0	0
111	113	-1	0	0	0
113	114	-1	0	0	0
112	115	-1	0	0	0
115	116	-1	0	0	0
120	122	-1	0	0	0
121	123	-1	0	0	0
122	124	-1	0	0	0
123	125	-1	0	0	0
124	126	-1	0	0	0
126	127	-1	0	0	0
125	128	-1	0	0	0
128	129	-1	0	0	0
133	135	-1	0	0	0
134	136	-1	0	0	0
135	137	-1	0	0	0
136	138	-1	0	0	0
137	139	-1	0	0	0
139	140	-1	0	0	0
138	141	-1	0	0	0
141	142	-1	0	0	0
146	148	-1	0	0	0
147	149	-1	0	0	0
148	150	-1	0	0	0
149	151	-1	0	0	0
150	152	-1	0	0	0
152	153	-1	0	0	0
151	154	-1	0	0	0
154	155	-1	0	0	0
159	162	-1	0	0	10
160	163	-1	0	0	10
165	167	-1	0	0	10
169	171	-1	0	0	10
[NumArcSegments] = 118
0	1	12.440844757139928	1	0	0	0	1
2	0	12.440844757139928	1	0	0	0	1
8	11	8.3612756282368608	1	0	0	0	1
12	10	8.3612756282368608	1	0	0	0	1
7	13	8.3612756282368608	1	0	0	0	1
14	9	8.3612756282368608	1	0	0	0	1
15	16	12.440844757139928	1	0	0	0	1
17	15	12.440844757139928	1	0	0	0	1
23	26	8.3612756282368608	1	0	0	0	1
11	25	8.3612756282368608	1	0	0	0	1
22	27	8.3612756282368608	1	0	0	0	1
13	24	8.3612756282368608	1	0	0	0	1
28	29	12.440844757139928	1	0	0	0	1
30	28	12.440844757139928	1	0	0	0	1
36	39	8.3612756282368608	1	0	0	0	1
26	38	8.3612756282368608	1	0	0	0	1
35	40	8.3612756282368608	1	0	0	0	1
27	37	8.3612756282368608	1	0	0	0	1
41	42	12.440844757139928	1	0	0	0	1
43	41	12.440844757139928	1	0	0	0	1
49	52	8.3612756282368608	1	0	0	0	1
39	51	8.3612756282368608	1	0	0	0	1
48	53	8.3612756282368608	1	0	0	0	1
40	50	8.3612756282368608	1	0	0	0	1
54	55	12.440844757139928	1	0	0	0	1
56	54	12.440844757139928	1	0	0	0	1
62	65	8.3612756282368608	1	0	0	0	1
52	64	8.3612756282368608	1	0	0	0	1
61	66	8.3612756282368608	1	0	0	0	1
53	63	8.3612756282368608	1	0	0	0	1
67	68	12.440844757139928	1	0	0	0	1
69	67	12.440844757139928	1	0	0	0	1
75	78	8.3612756282368608	1	0	0	0	1
65	77	8.3612756282368608	1	0	0	0	1
74	79	8.3612756282368608	1	0	0	0	1
66	76	8.3612756282368608	1	0	0	0	1
80	81	12.440844757139928	1	0	0	0	1
82	80	12.440844757139928	1	0	0	0	1
88	91	8.3612756282368608	1	0	0	0	1
78	90	8.3612756282368608	1	0	0	0	1
87	92	8.3612756282368608	1	0	0	0	1
79	89	8.3612756282368608	1	0	0	0	1
93	94	12.440844757139928	1	0	0	0	1
95	93	12.440844757139928	1	0	0	0	1
101	104	8.3612756282368608	1	0	0	0	1
91	103	8.3612756282368608	1	0	0	0	1
100	105	8.3612756282368608	1	0	0	0	1
92	102	8.3612756282368608	1	0	0	0	1
106	107	12.440844757139928	1	0	0	0	1
108	106	12.440844757139928	1	0	0	0	1
114	117	8.3612756282368608	1	0	0	0	1
104	116	8.3612756282368608	1	0	0	0	1
113	118	8.3612756282368608	1	0	0	0	1
105	115	8.3612756282368608	1	0	0	0	1
119	120	12.440844757139928	1	0	0	0	1
121	119	12.440844757139928	1	0	0	0	1
127	130	8.3612756282368608	1	0	0	0	1
117	129	8.3612756282368608	1	0	0	0	1
126	131	8.3612756282368608	1	0	0	0	1
118	128	8.3612756282368608	1	0	0	0	1
132	133	12.440844757139928	1	0	0	0	1
134	132	12.440844757139928	1	0	0	0	1
140	143	8.3612756282368608	1	0	0	0	1
130	142	8.3612756282368608	1	0	0	0	1
139	144	8.3612756282368608	1	0	0	0	1
131	141	8.3612756282368608	1	0	0	0	1
145	146	12.440844757139928	1	0	0	0	1
147	145	12.440844757139928	1	0	0	0	1
153	12	8.3612756282368608	1	0	0	0	1
143	155	8.3612756282368608	1	0	0	0	1
152	14	8.3612756282368608	1	0	0	0	1
144	154	8.3612756282368608	1	0	0	0	1
156	157	180	1	0	0	0	1
157	156	180	1	0	0	0	1
1	17	5.1183104857201398	1	0	0	0	1
16	30	5.1183104857201505	1	0	0	0	1
29	43	5.1183104857201496	1	0	0	0	1
42	56	5.1183104857201371	1	0	0	0	1
55	69	5.1183104857201736	1	0	0	0	1
68	82	5.1183104857201398	1	0	0	0	1
81	95	5.1183104857201549	1	0	0	0	1
94	108	5.1183104857201096	1	0	0	0	1
107	121	5.1183104857201656	1	0	0	0	1
120	134	5.118310485720162	1	0	0	0	1
133	147	5.1183104857201087	1	0	0	0	1
146	2	5.1183104857201736	1	0	0	0	1
158	159	45	1	0	0	10	1
160	158	45	1	0	0	10	1
161	162	45	1	0	0	10	1
163	161	45	1	0	0	10	1
164	165	45	1	0	0	10	1
159	164	45	1	0	0	10	1
166	167	45	1	0	0	10	1
162	166	45	1	0	0	10	1
168	169	45	1	0	0	10	1
165	168	45	1	0	0	10	1
170	171	45	1	0	0	10	1
167	170	45	1	0	0	10	1
172	160	45	1	0	0	10	1
169	172	45	1	0	0	10	1
173	163	45	1	0	0	10	1
171	173	45	1	0	0	10	1
175	176	180	1	0	0	0	1
176	175	180	1	0	0	0	1
177	178	180	1	0	0	0	1
178	177	180	1	0	0	0	1
179	180	180	1	0	0	0	1
180	179	180	1	0	0	0	1
181	182	180	1	0	0	0	1
182	181	180	1	0	0	0	1
183	184	180	1	0	0	0	1
184	183	180	1	0	0	0	1
185	186	180	1	0	0	0	1
186	185	180	1	0	0	0	1
187	188	180	1	0	0	0	1
188	187	180	1	0	0	0	1
189	190	180	1	0	0	0	1
190	189	180	1	0	0	0	1
[NumHoles] = 0
[NumBlockLabels] = 39
112.16499017809738	-3.5527136788005009e-015	2	-1	1	0	2	-216	0
97.137730909464366	56.082495089048678	2	-1	3	0	2	216	0
56.082495089048678	97.137730909464381	2	-1	2	0	2	-216	0
1.4210854715202004e-014	112.16499017809738	2	-1	1	0	2	216	0
-56.082495089048678	97.137730909464366	2	-1	3	0	2	-216	0
-97.137730909464366	56.082495089048706	2	-1	2	0	2	216	0
-112.16499017809738	4.6185277824406512e-014	2	-1	1	0	2	-216	0
-97.137730909464409	-56.082495089048635	2	-1	3	0	2	216	0
-56.08249508904867	-97.137730909464381	2	-1	2	0	2	-216	0
4.2632564145606011e-014	-112.16499017809738	2	-1	1	0	2	216	0
56.082495089048656	-97.137730909464381	2	-1	3	0	2	-216	0
97.137730909464381	-56.082495089048678	2	-1	2	0	2	216	0
126.55105724325779	3.5527136788005009e-015	2	-1	1	0	2	-216	0
109.59643044843993	63.275528621628887	2	-1	3	0	2	216	0
63.275528621628894	109.59643044843995	2	-1	2	0	2	-216	0
1.0658141036401503e-014	126.55105724325779	2	-1	1	0	2	216	0
-63.275528621628887	109.59643044843993	2	-1	3	0	2	-216	0
-109.59643044843992	63.275528621628922	2	-1	2	0	2	216	0
-126.55105724325779	5.3290705182007514e-014	2	-1	1	0	2	-216	0
-109.59643044843997	-63.275528621628837	2	-1	3	0	2	216	0
-63.275528621628879	-109.59643044843995	2	-1	2	0	2	-216	0
5.3290705182007514e-014	-126.55105724325779	2	-1	1	0	2	216	0
63.275528621628865	-109.59643044843995	2	-1	3	0	2	-216	0
109.59643044843995	-63.275528621628879	2	-1	2	0	2	216	0
151.52676006298188	-40.60147299058049	4	-1	0	0	1	1	0
21.344922371201189	-93.518215266540707	3	-1	0	282.85714285714289	11	1	0
93.518215266540707	21.344922371201189	3	-1	0	552.85714285714289	12	1	0
-21.344922371201189	93.518215266540707	3	-1	0	462.85714285714295	13	1	0
-93.518215266540736	-21.344922371201207	3	-1	0	732.85714285714243	14	1	0
10.459950425679892	-45.828037159126367	4	-1	0	0	10	1	0
99.40259822000499	0	1	-1	0	0	0	1	0
180.5	0	1	-1	0	0	0	1	0
266.70354017822132	53.050632565385733	5	-1	0	0	0	1	0
254.792776787577	105.53862374011511	6	-1	0	0	0	1	0
232.5145380117475	155.36124730512449	7	-1	0	0	0	1	0
200.46477246638625	200.46477246638619	8	-1	0	0	0	1	0
159.64707481699	238.92873216379564	9	-1	0	0	0	1	0
111.4428824108908	269.04691814632258	10	-1	0	0	0	1	0
57.565580017758954	289.4017138104104	11	-1	0	0	0	1	0
