[Format]      =  4.0
[Frequency]   =  0
[Precision]   =  1e-008
[MinAngle]    =  30
[DoSmartMesh] =  1
[Depth]       =  1
[LengthUnits] =  millimeters
[ProblemType] =  planar
[Coordinates] =  cartesian
[ACSolver]    =  0
[PrevType]    =  0
[PrevSoln]    =  ""
[Comment]     =  "Add comments here."
[PointProps]   = 0
[BdryProps]   = 0
[BlockProps]  = 11
  <BeginBlock>
    <BlockName> = "Air"
    <Mu_x> = 1
    <Mu_y> = 1
    <H_c> = 0
    <H_cAngle> = 0
    <J_re> = 0
    <J_im> = 0
    <Sigma> = 0
    <d_lam> = 0
    <Phi_h> = 0
    <Phi_hx> = 0
    <Phi_hy> = 0
    <LamType> = 0
    <LamFill> = 1
    <NStrands> = 0
    <WireD> = 0
    <BHPoints> = 0
  <EndBlock>
  <BeginBlock>
    <BlockName> = "18 AWG"
    <Mu_x> = 1
    <Mu_y> = 1
    <H_c> = 0
    <H_cAngle> = 0
    <J_re> = 0
    <J_im> = 0
    <Sigma> = 58
    <d_lam> = 0
    <Phi_h> = 0
    <Phi_hx> = 0
    <Phi_hy> = 0
    <LamType> = 3
    <LamFill> = 1
    <NStrands> = 1
    <WireD> = 1.0239652968433499
    <BHPoints> = 0
  <EndBlock>
  <BeginBlock>
    <BlockName> = "N40"
    <Mu_x> = 1.044
    <Mu_y> = 1.044
    <H_c> = 963000
    <H_cAngle> = 0
    <J_re> = 0
    <J_im> = 0
    <Sigma> = 555000
    <d_lam> = 0
    <Phi_h> = 0
    <Phi_hx> = 0
    <Phi_hy> = 0
    <LamType> = 0
    <LamFill> = 1
    <NStrands> = 0
    <WireD> = 0
    <BHPoints> = 0
  <EndBlock>
  <BeginBlock>
    <BlockName> = "M19_29Ga"
    <Mu_x> = 0
    <Mu_y> = 0
    <H_c> = 0
    <H_cAngle> = 0
    <J_re> = 0
    <J_im> = 0
    <Sigma> = 0
    <d_lam> = 0.35999999999999999
    <Phi_h> = 0
    <Phi_hx> = 0
    <Phi_hy> = 0
    <LamType> = 0
    <LamFill> = 0.91000000000000003
    <NStrands> = 0
    <WireD> = 0
    <BHPoints> = 187
      0	0
      0.51870000000000005	49
      0.66139999999999999	63
      0.72040000000000004	69
      0.76580000000000004	74
      0.80400000000000005	78
      0.83760000000000001	82
      0.86809999999999998	86
      0.89610000000000001	90
      0.92210000000000003	94
      0.9466	98
      0.96970000000000001	102
      0.99170000000000003	106
      1.0127999999999999	110
      1.0328999999999999	114
      1.0524	119
      1.0710999999999999	124
      1.0891999999999999	128
      1.1068	134
      1.1237999999999999	139
      1.1404000000000001	145
      1.1565000000000001	151
      1.1722999999999999	157
      1.1877	164
      1.2027000000000001	172
      1.2174	180
      1.2318	189
      1.2459	199
      1.2598	209
      1.2734000000000001	221
      1.2867	234
      1.2999000000000001	248
      1.3128	264
      1.3254999999999999	282
      1.3380000000000001	302
      1.3503000000000001	324
      1.3625	349
      1.3744000000000001	377
      1.3862000000000001	409
      1.3978999999999999	446
      1.4094	486
      1.4207000000000001	532
      1.4319	584
      1.4430000000000001	641
      1.4539	705
      1.4646999999999999	776
      1.4754	855
      1.486	942
      1.4964999999999999	1037
      1.5067999999999999	1141
      1.5169999999999999	1256
      1.5271999999999999	1380
      1.5371999999999999	1515
      1.5471999999999999	1661
      1.5569999999999999	1818
      1.5667	1987
      1.5764	2167
      1.5860000000000001	2357
      1.5954999999999999	2558
      1.6049	2769
      1.6142000000000001	2990
      1.6234	3220
      1.6326000000000001	3459
      1.6416999999999999	3706
      1.6507000000000001	3961
      1.6597	4224
      1.6685000000000001	4495
      1.6773	4773
      1.6860999999999999	5058
      1.6948000000000001	5352
      1.7034	5653
      1.7119	5962
      1.7203999999999999	6280
      1.7289000000000001	6606
      1.7372000000000001	6942
      1.7456	7286
      1.7538	7641
      1.762	8007
      1.7702	8384
      1.7783	8773
      1.7863	9175
      1.7943	9590
      1.8023	10020
      1.8102	10466
      1.8180000000000001	10929
      1.8258000000000001	11409
      1.8335999999999999	11909
      1.8412999999999999	12430
      1.849	12972
      1.8566	13539
      1.8642000000000001	14132
      1.8716999999999999	14752
      1.8792	15402
      1.8867	16085
      1.8940999999999999	16802
      1.9014	17557
      1.9088000000000001	18353
      1.9160999999999999	19192
      1.9233	20078
      1.9306000000000001	21016
      1.9377	22008
      1.9449000000000001	23059
      1.952	24174
      1.9591000000000001	25357
      1.9661	26614
      1.9731000000000001	27948
      1.9801	29367
      1.9870000000000001	30873
      1.994	32474
      2.0007999999999999	34174
      2.0076999999999998	35978
      2.0145	37891
      2.0213000000000001	39915
      2.028	42056
      2.0348000000000002	44315
      2.0413999999999999	46694
      2.0480999999999998	49194
      2.0547	51814
      2.0613999999999999	54555
      2.0678999999999998	57412
      2.0745	60385
      2.081	63468
      2.0874999999999999	66657
      2.0939999999999999	69947
      2.1004	73333
      2.1067999999999998	76809
      2.1132	80369
      2.1196000000000002	84007
      2.1259000000000001	87716
      2.1322000000000001	91492
      2.1385000000000001	95328
      2.1448	99220
      2.1509999999999998	103162
      2.1573000000000002	107149
      2.1634000000000002	111177
      2.1696	115242
      2.1758000000000002	119339
      2.1819000000000002	123466
      2.1880000000000002	127619
      2.1941000000000002	131794
      2.2000999999999999	135990
      2.2061999999999999	140203
      2.2122000000000002	144432
      2.2181999999999999	148673
      2.2242000000000002	152926
      2.2301000000000002	157188
      2.2360000000000002	161458
      2.242	165734
      2.2477999999999998	170015
      2.2536999999999998	174300
      2.2595999999999998	178587
      2.2654000000000001	182876
      2.2711999999999999	187166
      2.2770000000000001	191455
      2.2827999999999999	195743
      2.2885	200030
      2.2942999999999998	204314
      2.2999999999999998	208595
      2.3056999999999999	212872
      2.3113999999999999	217146
      2.3170000000000002	221415
      2.3227000000000002	225679
      2.3283	229938
      2.3338999999999999	234191
      2.3395000000000001	238438
      2.3451	242679
      2.3506999999999998	246914
      2.3561999999999999	251142
      2.3616999999999999	255362
      2.3672	259576
      2.3727	263783
      2.3782000000000001	267982
      2.3837000000000002	272173
      2.3891	276357
      2.3944999999999999	280533
      2.3999999999999999	284701
      2.4053	288860
      2.4106999999999998	293012
      2.4161000000000001	297155
      2.4215	301290
      2.4268000000000001	305417
      2.4321000000000002	309536
      2.4373999999999998	313646
      2.4426999999999999	317747
      2.448	321840
      2.4533	325924
      2.4584999999999999	330000
  <EndBlock>
  <BeginBlock>
    <BlockName> = "u1"
    <Mu_x> = 0.37737277525645235
    <Mu_y> = 0.37737277525645235
    <H_c> = 0
    <H_cAngle> = 0
    <J_re> = 0
    <J_im> = 0
    <Sigma> = 0
    <d_lam> = 0
    <Phi_h> = 0
    <Phi_hx> = 0
    <Phi_hy> = 0
    <LamType> = 0
    <LamFill> = 1
    <NStrands> = 0
    <WireD> = 0
    <BHPoints> = 0
  <EndBlock>
  <BeginBlock>
    <BlockName> = "u2"
    <Mu_x> = 7.7200304346442108
    <Mu_y> = 7.7200304346442108
    <H_c> = 0
    <H_cAngle> = 0
    <J_re> = 0
    <J_im> = 0
    <Sigma> = 0
    <d_lam> = 0
    <Phi_h> = 0
    <Phi_hx> = 0
    <Phi_hy> = 0
    <LamType> = 0
    <LamFill> = 1
    <NStrands> = 0
    <WireD> = 0
    <BHPoints> = 0
  <EndBlock>
  <BeginBlock>
    <BlockName> = "u3"
    <Mu_x> = 0.069449425895143593
    <Mu_y> = 0.069449425895143593
    <H_c> = 0
    <H_cAngle> = 0
    <J_re> = 0
    <J_im> = 0
    <Sigma> = 0
    <d_lam> = 0
    <Phi_h> = 0
    <Phi_hx> = 0
    <Phi_hy> = 0
    <LamType> = 0
    <LamFill> = 1
    <NStrands> = 0
    <WireD> = 0
    <BHPoints> = 0
  <EndBlock>
  <BeginBlock>
    <BlockName> = "u4"
    <Mu_x> = 23.31949550539958
    <Mu_y> = 23.31949550539958
    <H_c> = 0
    <H_cAngle> = 0
    <J_re> = 0
    <J_im> = 0
    <Sigma> = 0
    <d_lam> = 0
    <Phi_h> = 0
    <Phi_hx> = 0
    <Phi_hy> = 0
    <LamType> = 0
    <LamFill> = 1
    <NStrands> = 0
    <WireD> = 0
    <BHPoints> = 0
  <EndBlock>
  <BeginBlock>
    <BlockName> = "u5"
    <Mu_x> = 0.026883543752277105
    <Mu_y> = 0.026883543752277105
    <H_c> = 0
    <H_cAngle> = 0
    <J_re> = 0
    <J_im> = 0
    <Sigma> = 0
    <d_lam> = 0
    <Phi_h> = 0
    <Phi_hx> = 0
    <Phi_hy> = 0
    <LamType> = 0
    <LamFill> = 1
    <NStrands> = 0
    <WireD> = 0
    <BHPoints> = 0
  <EndBlock>
  <BeginBlock>
    <BlockName> = "u6"
    <Mu_x> = 63.839650875508823
    <Mu_y> = 63.839650875508823
    <H_c> = 0
    <H_cAngle> = 0
    <J_re> = 0
    <J_im> = 0
    <Sigma> = 0
    <d_lam> = 0
    <Phi_h> = 0
    <Phi_hx> = 0
    <Phi_hy> = 0
    <LamType> = 0
    <LamFill> = 1
    <NStrands> = 0
    <WireD> = 0
    <BHPoints> = 0
  <EndBlock>
  <BeginBlock>
    <BlockName> = "u7"
    <Mu_x> = 0.0070407582729502555
    <Mu_y> = 0.0070407582729502555
    <H_c> = 0
    <H_cAngle> = 0
    <J_re> = 0
    <J_im> = 0
    <Sigma> = 0
    <d_lam> = 0
    <Phi_h> = 0
    <Phi_hx> = 0
    <Phi_hy> = 0
    <LamType> = 0
    <LamFill> = 1
    <NStrands> = 0
    <WireD> = 0
    <BHPoints> = 0
  <EndBlock>
[CircuitProps]  = 3
  <BeginCircuit>
    <CircuitName> = "U"
    <TotalAmps_re> = -1.295094309016009
    <TotalAmps_im> = -0
    <CircuitType> = 1
  <EndCircuit>
  <BeginCircuit>
    <CircuitName> = "V"
    <TotalAmps_re> = -4.2664359282561755
    <TotalAmps_im> = -0
    <CircuitType> = 1
  <EndCircuit>
  <BeginCircuit>
    <CircuitName> = "W"
    <TotalAmps_re> = 5.5615302372721809
    <TotalAmps_im> = 0
    <CircuitType> = 1
  <EndCircuit>
[NumPoints] = 191
115.35352415396653	-30.908883641139337	0	0
119.31103183648545	-5.1645236754602131	0	0
105.90864635986043	-55.182907216847994	0	0
121.24288348906359	-5.6821617656652563	0	0
107.84049801243856	-55.700545307053034	0	0
123.1917233241941	-7.5482431174500348	0	0
110.46128349346105	-55.058891368444264	0	0
145.16245751969205	-13.435283602252564	0	0
167.03220514243597	-19.295264816439261	0	0
132.43201768895904	-60.94593185324679	0	0
154.30176531170295	-66.805913067433494	0	0
168.14298914638496	0	0	0
145.61610006902052	-84.071494573192481	0	0
145.78287251467287	0	0	0
126.25167103437492	-72.891436257336423	0	0
115.35352415396655	30.908883641139333	0	0
105.90864635986044	55.182907216847994	0	0
119.31103183648544	5.1645236754602095	0	0
107.84049801243857	55.700545307053034	0	0
121.24288348906357	5.6821617656652492	0	0
110.46128349346105	55.058891368444264	0	0
123.1917233241941	7.5482431174500313	0	0
132.43201768895904	60.94593185324679	0	0
154.30176531170292	66.805913067433494	0	0
145.16245751969208	13.435283602252547	0	0
167.03220514243597	19.29526481643925	0	0
145.61610006902055	84.071494573192467	0	0
126.25167103437491	72.891436257336423	0	0
84.444640512827206	84.444640512827192	0	0
64.128124619637475	100.74412268440021	0	0
100.74412268440022	64.128124619637433	0	0
65.542338182010553	102.1583362467733	0	0
102.15833624677332	65.542338182010525	0	0
68.132831955749836	102.91304037601101	0	0
102.91304037601104	68.132831955749808	0	0
84.216525666445278	118.99673408670648	0	0
100.22629207500249	135.00650049526368	0	0
118.99673408670645	84.216525666445264	0	0
135.00650049526368	100.22629207500246	0	0
84.071494573192496	145.61610006902049	0	0
72.891436257336437	126.25167103437491	0	0
30.908883641139344	115.35352415396653	0	0
5.1645236754602202	119.31103183648544	0	0
55.182907216847994	105.90864635986043	0	0
5.6821617656652634	121.24288348906357	0	0
55.700545307053041	107.84049801243856	0	0
7.5482431174500384	123.19172332419409	0	0
55.058891368444272	110.46128349346105	0	0
13.435283602252568	145.16245751969205	0	0
19.295264816439268	167.03220514243597	0	0
60.945931853246805	132.43201768895904	0	0
66.805913067433494	154.30176531170295	0	0
7.1054273576010019e-015	168.14298914638496	0	0
7.1054273576010019e-015	145.78287251467287	0	0
-30.908883641139312	115.35352415396653	0	0
-55.182907216847966	105.90864635986043	0	0
-5.1645236754601882	119.31103183648543	0	0
-55.700545307053005	107.84049801243857	0	0
-5.6821617656652279	121.24288348906357	0	0
-55.05889136844425	110.46128349346105	0	0
-7.5482431174500064	123.19172332419407	0	0
-60.945931853246776	132.43201768895904	0	0
-66.805913067433465	154.30176531170292	0	0
-13.435283602252532	145.16245751969208	0	0
-19.295264816439222	167.03220514243597	0	0
-84.071494573192439	145.61610006902052	0	0
-72.891436257336409	126.25167103437491	0	0
-84.444640512827206	84.444640512827192	0	0
-100.74412268440021	64.128124619637447	0	0
-64.128124619637461	100.74412268440021	0	0
-102.15833624677332	65.542338182010525	0	0
-65.542338182010567	102.1583362467733	0	0
-102.91304037601103	68.132831955749822	0	0
-68.132831955749822	102.91304037601101	0	0
-118.99673408670648	84.21652566644525	0	0
-135.00650049526368	100.22629207500245	0	0
-84.216525666445278	118.99673408670644	0	0
-100.22629207500248	135.00650049526365	0	0
-145.61610006902052	84.071494573192467	0	0
-126.25167103437492	72.891436257336409	0	0
-115.35352415396653	30.908883641139351	0	0
-119.31103183648544	5.1645236754602273	0	0
-105.90864635986043	55.182907216848008	0	0
-121.24288348906357	5.6821617656652705	0	0
-107.84049801243856	55.700545307053048	0	0
-123.19172332419409	7.5482431174500455	0	0
-110.46128349346105	55.058891368444279	0	0
-145.16245751969205	13.435283602252579	0	0
-167.03220514243597	19.295264816439278	0	0
-132.43201768895904	60.945931853246812	0	0
-154.30176531170292	66.805913067433508	0	0
-168.14298914638496	2.1316282072803006e-014	0	0
-145.78287251467287	1.4210854715202004e-014	0	0
-115.35352415396653	-30.908883641139358	0	0
-105.90864635986041	-55.182907216848008	0	0
-119.31103183648544	-5.1645236754602379	0	0
-107.84049801243856	-55.700545307053048	0	0
-121.24288348906359	-5.6821617656652776	0	0
-110.46128349346104	-55.058891368444293	0	0
-123.19172332419409	-7.5482431174500562	0	0
-132.43201768895904	-60.945931853246805	0	0
-154.30176531170292	-66.805913067433522	0	0
-145.16245751969208	-13.435283602252582	0	0
-167.03220514243597	-19.295264816439285	0	0
-145.61610006902052	-84.07149457319251	0	0
-126.25167103437489	-72.891436257336437	0	0
-84.444640512827235	-84.444640512827149	0	0
-64.128124619637504	-100.74412268440017	0	0
-100.74412268440024	-64.12812461963739	0	0
-65.542338182010596	-102.15833624677327	0	0
-102.15833624677333	-65.542338182010511	0	0
-68.132831955749879	-102.91304037601097	0	0
-102.91304037601105	-68.132831955749779	0	0
-84.216525666445307	-118.99673408670641	0	0
-100.22629207500253	-135.00650049526359	0	0
-118.99673408670648	-84.216525666445207	0	0
-135.00650049526371	-100.22629207500242	0	0
-84.071494573192552	-145.61610006902046	0	0
-72.891436257336494	-126.25167103437487	0	0
-30.908883641139358	-115.35352415396653	0	0
-5.1645236754602344	-119.31103183648544	0	0
-55.182907216848008	-105.90864635986043	0	0
-5.6821617656652776	-121.24288348906357	0	0
-55.700545307053055	-107.84049801243856	0	0
-7.5482431174500526	-123.19172332419409	0	0
-55.058891368444286	-110.46128349346105	0	0
-13.435283602252586	-145.16245751969205	0	0
-19.295264816439289	-167.03220514243597	0	0
-60.945931853246819	-132.43201768895901	0	0
-66.805913067433522	-154.30176531170292	0	0
-2.8421709430404007e-014	-168.14298914638496	0	0
-2.8421709430404007e-014	-145.78287251467285	0	0
30.908883641139358	-115.35352415396653	0	0
55.182907216848008	-105.90864635986041	0	0
5.1645236754602379	-119.31103183648544	0	0
55.700545307053048	-107.84049801243856	0	0
5.6821617656652776	-121.24288348906359	0	0
55.058891368444293	-110.46128349346104	0	0
7.5482431174500562	-123.19172332419409	0	0
60.945931853246805	-132.43201768895904	0	0
66.805913067433522	-154.30176531170292	0	0
13.435283602252582	-145.16245751969208	0	0
19.295264816439285	-167.03220514243597	0	0
84.07149457319251	-145.61610006902052	0	0
72.891436257336437	-126.25167103437489	0	0
84.444640512827149	-84.444640512827235	0	0
100.74412268440017	-64.128124619637504	0	0
64.12812461963739	-100.74412268440024	0	0
102.15833624677327	-65.542338182010596	0	0
65.542338182010511	-102.15833624677333	0	0
102.91304037601097	-68.132831955749879	0	0
68.132831955749779	-102.91304037601105	0	0
118.99673408670641	-84.216525666445307	0	0
135.00650049526359	-100.22629207500253	0	0
84.216525666445207	-118.99673408670648	0	0
100.22629207500242	-135.00650049526371	0	0
173.8666487320323	-46.58742811845373	0	0
-173.8666487320323	46.587428118453751	0	0
70.02501401127563	-87.808590214414778	0	10
111.60521184709944	-12.57488732698743	0	10
-12.574887326987394	-111.60521184709947	0	10
71.429964789787945	-89.570342767037545	0	10
113.84440924655107	-12.827184281000335	0	10
-12.827184281000292	-113.84440924655107	0	10
87.808590214414778	70.02501401127563	0	10
12.57488732698743	111.60521184709944	0	10
89.570342767037545	71.429964789787945	0	10
12.827184281000335	113.84440924655107	0	10
-70.02501401127563	87.808590214414778	0	10
-111.60521184709941	12.57488732698743	0	10
-71.429964789787931	89.570342767037573	0	10
-113.84440924655105	12.827184281000328	0	10
-87.808590214414792	-70.02501401127563	0	10
-89.570342767037602	-71.429964789787917	0	10
1.7720645981249098e-014	-2.2220987218248361e-014	0	10
0	270	0	0
0	-270	0	0
0	-273.85714285714289	0	0
0	273.85714285714289	0	0
0	-277.71428571428572	0	0
0	277.71428571428572	0	0
0	-281.57142857142861	0	0
0	281.57142857142861	0	0
0	-285.42857142857144	0	0
0	285.42857142857144	0	0
0	-289.28571428571428	0	0
0	289.28571428571428	0	0
0	-293.14285714285717	0	0
0	293.14285714285717	0	0
0	-297.00000000000006	0	0
0	297.00000000000006	0	0
[NumSegments] = 100
1	3	-1	0	0	0
2	4	-1	0	0	0
3	5	-1	0	0	0
4	6	-1	0	0	0
5	7	-1	0	0	0
7	8	-1	0	0	0
6	9	-1	0	0	0
9	10	-1	0	0	0
16	18	-1	0	0	0
17	19	-1	0	0	0
18	20	-1	0	0	0
19	21	-1	0	0	0
20	22	-1	0	0	0
22	23	-1	0	0	0
21	24	-1	0	0	0
24	25	-1	0	0	0
29	31	-1	0	0	0
30	32	-1	0	0	0
31	33	-1	0	0	0
32	34	-1	0	0	0
33	35	-1	0	0	0
35	36	-1	0	0	0
34	37	-1	0	0	0
37	38	-1	0	0	0
42	44	-1	0	0	0
43	45	-1	0	0	0
44	46	-1	0	0	0
45	47	-1	0	0	0
46	48	-1	0	0	0
48	49	-1	0	0	0
47	50	-1	0	0	0
50	51	-1	0	0	0
55	57	-1	0	0	0
56	58	-1	0	0	0
57	59	-1	0	0	0
58	60	-1	0	0	0
59	61	-1	0	0	0
61	62	-1	0	0	0
60	63	-1	0	0	0
63	64	-1	0	0	0
68	70	-1	0	0	0
69	71	-1	0	0	0
70	72	-1	0	0	0
71	73	-1	0	0	0
72	74	-1	0	0	0
74	75	-1	0	0	0
73	76	-1	0	0	0
76	77	-1	0	0	0
81	83	-1	0	0	0
82	84	-1	0	0	0
83	85	-1	0	0	0
84	86	-1	0	0	0
85	87	-1	0	0	0
87	88	-1	0	0	0
86	89	-1	0	0	0
89	90	-1	0	0	0
94	96	-1	0	0	0
95	97	-1	0	0	0
96	98	-1	0	0	0
97	99	-1	0	0	0
98	100	-1	0	0	0
100	101	-1	0	0	0
99	102	-1	0	0	0
102	103	-1	0	0	0
107	109	-1	0	0	0
108	110	-1	0	0	0
109	111	-1	0	0	0
110	112	-1	0	0	0
111	113	-1	0	0	0
113	114	-1	0	0	0
112	115	-1	0	0	0
115	116	-1	0	0	0
120	122	-1	0	0	0
121	123	-1	0	0	0
122	124	-1	0	0	0
123	125	-1	0	0	0
124	126	-1	0	0	0
126	127	-1	0	0	0
125	128	-1	0	0	0
128	129	-1	0	0	0
133	135	-1	0	0	0
134	136	-1	0	0	0
135	137	-1	0	0	0
136	138	-1	0	0	0
137	139	-1	0	0	0
139	140	-1	0	0	0
138	141	-1	0	0	0
141	142	-1	0	0	0
146	148	-1	0	0	0
147	149	-1	0	0	0
148	150	-1	0	0	0
149	151	-1	0	0	0
150	152	-1	0	0	0
152	153	-1	0	0	0
151	154	-1	0	0	0
154	155	-1	0	0	0
159	162	-1	0	0	10
160	163	-1	0	0	10
165	167	-1	0	0	10
169	171	-1	0	0	10
[NumArcSegments] = 118
0	1	12.521429490736745	1	0	0	0	1
2	0	12.521429490736745	1	0	0	0	1
8	11	6.8471447988540977	1	0	0	0	1
12	10	6.8471447988540977	1	0	0	0	1
7	13	6.8471447988540977	1	0	0	0	1
14	9	6.8471447988540977	1	0	0	0	1
15	16	12.521429490736745	1	0	0	0	1
17	15	12.521429490736745	1	0	0	0	1
23	26	6.8471447988540977	1	0	0	0	1
11	25	6.8471447988540977	1	0	0	0	1
22	27	6.8471447988540977	1	0	0	0	1
13	24	6.8471447988540977	1	0	0	0	1
28	29	12.521429490736745	1	0	0	0	1
30	28	12.521429490736745	1	0	0	0	1
36	39	6.8471447988540977	1	0	0	0	1
26	38	6.8471447988540977	1	0	0	0	1
35	40	6.8471447988540977	1	0	0	0	1
27	37	6.8471447988540977	1	0	0	0	1
41	42	12.521429490736745	1	0	0	0	1
43	41	12.521429490736745	1	0	0	0	1
49	52	6.8471447988540977	1	0	0	0	1
39	51	6.8471447988540977	1	0	0	0	1
48	53	6.8471447988540977	1	0	0	0	1
40	50	6.8471447988540977	1	0	0	0	1
54	55	12.521429490736745	1	0	0	0	1
56	54	12.521429490736745	1	0	0	0	1
62	65	6.8471447988540977	1	0	0	0	1
52	64	6.8471447988540977	1	0	0	0	1
61	66	6.8471447988540977	1	0	0	0	1
53	63	6.8471447988540977	1	0	0	0	1
67	68	12.521429490736745	1	0	0	0	1
69	67	12.521429490736745	1	0	0	0	1
75	78	6.8471447988540977	1	0	0	0	1
65	77	6.8471447988540977	1	0	0	0	1
74	79	6.8471447988540977	1	0	0	0	1
66	76	6.8471447988540977	1	0	0	0	1
80	81	12.521429490736745	1	0	0	0	1
82	80	12.521429490736745	1	0	0	0	1
88	91	6.8471447988540977	1	0	0	0	1
78	90	6.8471447988540977	1	0	0	0	1
87	92	6.8471447988540977	1	0	0	0	1
79	89	6.8471447988540977	1	0	0	0	1
93	94	12.521429490736745	1	0	0	0	1
95	93	12.521429490736745	1	0	0	0	1
101	104	6.8471447988540977	1	0	0	0	1
91	103	6.8471447988540977	1	0	0	0	1
100	105	6.8471447988540977	1	0	0	0	1
92	102	6.8471447988540977	1	0	0	0	1
106	107	12.521429490736745	1	0	0	0	1
108	106	12.521429490736745	1	0	0	0	1
114	117	6.8471447988540977	1	0	0	0	1
104	116	6.8471447988540977	1	0	0	0	1
113	118	6.8471447988540977	1	0	0	0	1
105	115	6.8471447988540977	1	0	0	0	1
119	120	12.521429490736745	1	0	0	0	1
121	119	12.521429490736745	1	0	0	0	1
127	130	6.8471447988540977	1	0	0	0	1
117	129	6.8471447988540977	1	0	0	0	1
126	131	6.8471447988540977	1	0	0	0	1
118	128	6.8471447988540977	1	0	0	0	1
132	133	12.521429490736745	1	0	0	0	1
134	132	12.521429490736745	1	0	0	0	1
140	143	6.8471447988540977	1	0	0	0	1
130	142	6.8471447988540977	1	0	0	0	1
139	144	6.8471447988540977	1	0	0	0	1
131	141	6.8471447988540977	1	0	0	0	1
145	146	12.521429490736745	1	0	0	0	1
147	145	12.521429490736745	1	0	0	0	1
153	12	6.8471447988540977	1	0	0	0	1
143	155	6.8471447988540977	1	0	0	0	1
152	14	6.8471447988540977	1	0	0	0	1
144	154	6.8471447988540977	1	0	0	0	1
156	157	180	1	0	0	0	1
157	156	180	1	0	0	0	1
1	17	4.9571410185265048	1	0	0	0	1
16	30	4.9571410185265137	1	0	0	0	1
29	43	4.9571410185265208	1	0	0	0	1
42	56	4.9571410185265057	1	0	0	0	1
55	69	4.9571410185265385	1	0	0	0	1
68	82	4.9571410185264995	1	0	0	0	1
81	95	4.9571410185265288	1	0	0	0	1
94	108	4.9571410185264773	1	0	0	0	1
107	121	4.9571410185265341	1	0	0	0	1
120	134	4.9571410185265332	1	0	0	0	1
133	147	4.957141018526479	1	0	0	0	1
146	2	4.9571410185265448	1	0	0	0	1
158	159	45	1	0	0	10	1
160	158	45	1	0	0	10	1
161	162	45	1	0	0	10	1
163	161	45	1	0	0	10	1
164	165	45	1	0	0	10	1
159	164	45	1	0	0	10	1
166	167	45	1	0	0	10	1
162	166	45	1	0	0	10	1
168	169	45	1	0	0	10	1
165	168	45	1	0	0	10	1
170	171	45	1	0	0	10	1
167	170	45	1	0	0	10	1
172	160	45	1	0	0	10	1
169	172	45	1	0	0	10	1
173	163	45	1	0	0	10	1
171	173	45	1	0	0	10	1
175	176	180	1	0	0	0	1
176	175	180	1	0	0	0	1
177	178	180	1	0	0	0	1
178	177	180	1	0	0	0	1
179	180	180	1	0	0	0	1
180	179	180	1	0	0	0	1
181	182	180	1	0	0	0	1
182	181	180	1	0	0	0	1
183	184	180	1	0	0	0	1
184	183	180	1	0	0	0	1
185	186	180	1	0	0	0	1
186	185	180	1	0	0	0	1
187	188	180	1	0	0	0	1
188	187	180	1	0	0	0	1
189	190	180	1	0	0	0	1
190	189	180	1	0	0	0	1
[NumHoles] = 0
[NumBlockLabels] = 39
134.60281419881679	-7.1054273576010019e-015	2	-1	1	0	2	-295	0
116.56945651705209	67.301407099408394	2	-1	3	0	2	295	0
67.30140709940838	116.56945651705209	2	-1	2	0	2	-295	0
2.1316282072803006e-014	134.60281419881679	2	-1	1	0	2	295	0
-67.301407099408394	116.56945651705209	2	-1	3	0	2	-295	0
-116.56945651705207	67.301407099408436	2	-1	2	0	2	295	0
-134.60281419881682	5.6843418860808015e-014	2	-1	1	0	2	-295	0
-116.56945651705212	-67.301407099408337	2	-1	3	0	2	295	0
-67.30140709940838	-116.56945651705209	2	-1	2	0	2	-295	0
4.9737991503207013e-014	-134.60281419881682	2	-1	1	0	2	295	0
67.30140709940838	-116.56945651705209	2	-1	3	0	2	-295	0
116.56945651705209	-67.30140709940838	2	-1	2	0	2	295	0
156.9629308305289	7.1054273576010019e-015	2	-1	1	0	2	-295	0
135.9338855516977	78.481465415264438	2	-1	3	0	2	295	0
78.481465415264438	135.93388555169773	2	-1	2	0	2	-295	0
1.4210854715202004e-014	156.9629308305289	2	-1	1	0	2	295	0
-78.481465415264438	135.9338855516977	2	-1	3	0	2	-295	0
-135.9338855516977	78.481465415264495	2	-1	2	0	2	295	0
-156.96293083052893	6.3948846218409017e-014	2	-1	1	0	2	-295	0
-135.93388555169776	-78.481465415264367	2	-1	3	0	2	295	0
-78.481465415264424	-135.93388555169773	2	-1	2	0	2	-295	0
6.3948846218409017e-014	-156.96293083052893	2	-1	1	0	2	295	0
78.481465415264424	-135.93388555169773	2	-1	3	0	2	-295	0
135.93388555169773	-78.481465415264438	2	-1	2	0	2	295	0
168.14015222898402	-45.053018005002301	4	-1	0	0	1	1	0
70.727489400531795	-88.689466490726147	3	-1	0	308.57142857142861	11	1	0
88.689466490726161	70.72748940053178	3	-1	0	578.57142857142856	12	1	0
-70.72748940053178	88.689466490726161	3	-1	0	488.57142857142867	13	1	0
-88.689466490726161	-70.72748940053178	3	-1	0	758.5714285714281	14	1	0
35.012507005637815	-43.904295107207389	4	-1	0	0	10	1	0
116.99376217362224	0	1	-1	0	0	0	1	0
180.5	0	1	-1	0	0	0	1	0
266.70354017822132	53.050632565385733	5	-1	0	0	0	1	0
254.792776787577	105.53862374011511	6	-1	0	0	0	1	0
232.5145380117475	155.36124730512449	7	-1	0	0	0	1	0
200.46477246638625	200.46477246638619	8	-1	0	0	0	1	0
159.64707481699	238.92873216379564	9	-1	0	0	0	1	0
111.4428824108908	269.04691814632258	10	-1	0	0	0	1	0
57.565580017758954	289.4017138104104	11	-1	0	0	0	1	0
