[Format]      =  4.0
[Frequency]   =  0
[Precision]   =  1e-008
[MinAngle]    =  30
[DoSmartMesh] =  1
[Depth]       =  1
[LengthUnits] =  millimeters
[ProblemType] =  planar
[Coordinates] =  cartesian
[ACSolver]    =  0
[PrevType]    =  0
[PrevSoln]    =  ""
[Comment]     =  "Add comments here."
[PointProps]   = 0
[BdryProps]   = 0
[BlockProps]  = 11
  <BeginBlock>
    <BlockName> = "Air"
    <Mu_x> = 1
    <Mu_y> = 1
    <H_c> = 0
    <H_cAngle> = 0
    <J_re> = 0
    <J_im> = 0
    <Sigma> = 0
    <d_lam> = 0
    <Phi_h> = 0
    <Phi_hx> = 0
    <Phi_hy> = 0
    <LamType> = 0
    <LamFill> = 1
    <NStrands> = 0
    <WireD> = 0
    <BHPoints> = 0
  <EndBlock>
  <BeginBlock>
    <BlockName> = "18 AWG"
    <Mu_x> = 1
    <Mu_y> = 1
    <H_c> = 0
    <H_cAngle> = 0
    <J_re> = 0
    <J_im> = 0
    <Sigma> = 58
    <d_lam> = 0
    <Phi_h> = 0
    <Phi_hx> = 0
    <Phi_hy> = 0
    <LamType> = 3
    <LamFill> = 1
    <NStrands> = 1
    <WireD> = 1.0239652968433499
    <BHPoints> = 0
  <EndBlock>
  <BeginBlock>
    <BlockName> = "N40"
    <Mu_x> = 1.044
    <Mu_y> = 1.044
    <H_c> = 963000
    <H_cAngle> = 0
    <J_re> = 0
    <J_im> = 0
    <Sigma> = 555000
    <d_lam> = 0
    <Phi_h> = 0
    <Phi_hx> = 0
    <Phi_hy> = 0
    <LamType> = 0
    <LamFill> = 1
    <NStrands> = 0
    <WireD> = 0
    <BHPoints> = 0
  <EndBlock>
  <BeginBlock>
    <BlockName> = "M19_29Ga"
    <Mu_x> = 0
    <Mu_y> = 0
    <H_c> = 0
    <H_cAngle> = 0
    <J_re> = 0
    <J_im> = 0
    <Sigma> = 0
    <d_lam> = 0.35999999999999999
    <Phi_h> = 0
    <Phi_hx> = 0
    <Phi_hy> = 0
    <LamType> = 0
    <LamFill> = 0.91000000000000003
    <NStrands> = 0
    <WireD> = 0
    <BHPoints> = 187
      0	0
      0.51870000000000005	49
      0.66139999999999999	63
      0.72040000000000004	69
      0.76580000000000004	74
      0.80400000000000005	78
      0.83760000000000001	82
      0.86809999999999998	86
      0.89610000000000001	90
      0.92210000000000003	94
      0.9466	98
      0.96970000000000001	102
      0.99170000000000003	106
      1.0127999999999999	110
      1.0328999999999999	114
      1.0524	119
      1.0710999999999999	124
      1.0891999999999999	128
      1.1068	134
      1.1237999999999999	139
      1.1404000000000001	145
      1.1565000000000001	151
      1.1722999999999999	157
      1.1877	164
      1.2027000000000001	172
      1.2174	180
      1.2318	189
      1.2459	199
      1.2598	209
      1.2734000000000001	221
      1.2867	234
      1.2999000000000001	248
      1.3128	264
      1.3254999999999999	282
      1.3380000000000001	302
      1.3503000000000001	324
      1.3625	349
      1.3744000000000001	377
      1.3862000000000001	409
      1.3978999999999999	446
      1.4094	486
      1.4207000000000001	532
      1.4319	584
      1.4430000000000001	641
      1.4539	705
      1.4646999999999999	776
      1.4754	855
      1.486	942
      1.4964999999999999	1037
      1.5067999999999999	1141
      1.5169999999999999	1256
      1.5271999999999999	1380
      1.5371999999999999	1515
      1.5471999999999999	1661
      1.5569999999999999	1818
      1.5667	1987
      1.5764	2167
      1.5860000000000001	2357
      1.5954999999999999	2558
      1.6049	2769
      1.6142000000000001	2990
      1.6234	3220
      1.6326000000000001	3459
      1.6416999999999999	3706
      1.6507000000000001	3961
      1.6597	4224
      1.6685000000000001	4495
      1.6773	4773
      1.6860999999999999	5058
      1.6948000000000001	5352
      1.7034	5653
      1.7119	5962
      1.7203999999999999	6280
      1.7289000000000001	6606
      1.7372000000000001	6942
      1.7456	7286
      1.7538	7641
      1.762	8007
      1.7702	8384
      1.7783	8773
      1.7863	9175
      1.7943	9590
      1.8023	10020
      1.8102	10466
      1.8180000000000001	10929
      1.8258000000000001	11409
      1.8335999999999999	11909
      1.8412999999999999	12430
      1.849	12972
      1.8566	13539
      1.8642000000000001	14132
      1.8716999999999999	14752
      1.8792	15402
      1.8867	16085
      1.8940999999999999	16802
      1.9014	17557
      1.9088000000000001	18353
      1.9160999999999999	19192
      1.9233	20078
      1.9306000000000001	21016
      1.9377	22008
      1.9449000000000001	23059
      1.952	24174
      1.9591000000000001	25357
      1.9661	26614
      1.9731000000000001	27948
      1.9801	29367
      1.9870000000000001	30873
      1.994	32474
      2.0007999999999999	34174
      2.0076999999999998	35978
      2.0145	37891
      2.0213000000000001	39915
      2.028	42056
      2.0348000000000002	44315
      2.0413999999999999	46694
      2.0480999999999998	49194
      2.0547	51814
      2.0613999999999999	54555
      2.0678999999999998	57412
      2.0745	60385
      2.081	63468
      2.0874999999999999	66657
      2.0939999999999999	69947
      2.1004	73333
      2.1067999999999998	76809
      2.1132	80369
      2.1196000000000002	84007
      2.1259000000000001	87716
      2.1322000000000001	91492
      2.1385000000000001	95328
      2.1448	99220
      2.1509999999999998	103162
      2.1573000000000002	107149
      2.1634000000000002	111177
      2.1696	115242
      2.1758000000000002	119339
      2.1819000000000002	123466
      2.1880000000000002	127619
      2.1941000000000002	131794
      2.2000999999999999	135990
      2.2061999999999999	140203
      2.2122000000000002	144432
      2.2181999999999999	148673
      2.2242000000000002	152926
      2.2301000000000002	157188
      2.2360000000000002	161458
      2.242	165734
      2.2477999999999998	170015
      2.2536999999999998	174300
      2.2595999999999998	178587
      2.2654000000000001	182876
      2.2711999999999999	187166
      2.2770000000000001	191455
      2.2827999999999999	195743
      2.2885	200030
      2.2942999999999998	204314
      2.2999999999999998	208595
      2.3056999999999999	212872
      2.3113999999999999	217146
      2.3170000000000002	221415
      2.3227000000000002	225679
      2.3283	229938
      2.3338999999999999	234191
      2.3395000000000001	238438
      2.3451	242679
      2.3506999999999998	246914
      2.3561999999999999	251142
      2.3616999999999999	255362
      2.3672	259576
      2.3727	263783
      2.3782000000000001	267982
      2.3837000000000002	272173
      2.3891	276357
      2.3944999999999999	280533
      2.3999999999999999	284701
      2.4053	288860
      2.4106999999999998	293012
      2.4161000000000001	297155
      2.4215	301290
      2.4268000000000001	305417
      2.4321000000000002	309536
      2.4373999999999998	313646
      2.4426999999999999	317747
      2.448	321840
      2.4533	325924
      2.4584999999999999	330000
  <EndBlock>
  <BeginBlock>
    <BlockName> = "u1"
    <Mu_x> = 0.37737277525645235
    <Mu_y> = 0.37737277525645235
    <H_c> = 0
    <H_cAngle> = 0
    <J_re> = 0
    <J_im> = 0
    <Sigma> = 0
    <d_lam> = 0
    <Phi_h> = 0
    <Phi_hx> = 0
    <Phi_hy> = 0
    <LamType> = 0
    <LamFill> = 1
    <NStrands> = 0
    <WireD> = 0
    <BHPoints> = 0
  <EndBlock>
  <BeginBlock>
    <BlockName> = "u2"
    <Mu_x> = 7.7200304346442108
    <Mu_y> = 7.7200304346442108
    <H_c> = 0
    <H_cAngle> = 0
    <J_re> = 0
    <J_im> = 0
    <Sigma> = 0
    <d_lam> = 0
    <Phi_h> = 0
    <Phi_hx> = 0
    <Phi_hy> = 0
    <LamType> = 0
    <LamFill> = 1
    <NStrands> = 0
    <WireD> = 0
    <BHPoints> = 0
  <EndBlock>
  <BeginBlock>
    <BlockName> = "u3"
    <Mu_x> = 0.069449425895143593
    <Mu_y> = 0.069449425895143593
    <H_c> = 0
    <H_cAngle> = 0
    <J_re> = 0
    <J_im> = 0
    <Sigma> = 0
    <d_lam> = 0
    <Phi_h> = 0
    <Phi_hx> = 0
    <Phi_hy> = 0
    <LamType> = 0
    <LamFill> = 1
    <NStrands> = 0
    <WireD> = 0
    <BHPoints> = 0
  <EndBlock>
  <BeginBlock>
    <BlockName> = "u4"
    <Mu_x> = 23.31949550539958
    <Mu_y> = 23.31949550539958
    <H_c> = 0
    <H_cAngle> = 0
    <J_re> = 0
    <J_im> = 0
    <Sigma> = 0
    <d_lam> = 0
    <Phi_h> = 0
    <Phi_hx> = 0
    <Phi_hy> = 0
    <LamType> = 0
    <LamFill> = 1
    <NStrands> = 0
    <WireD> = 0
    <BHPoints> = 0
  <EndBlock>
  <BeginBlock>
    <BlockName> = "u5"
    <Mu_x> = 0.026883543752277105
    <Mu_y> = 0.026883543752277105
    <H_c> = 0
    <H_cAngle> = 0
    <J_re> = 0
    <J_im> = 0
    <Sigma> = 0
    <d_lam> = 0
    <Phi_h> = 0
    <Phi_hx> = 0
    <Phi_hy> = 0
    <LamType> = 0
    <LamFill> = 1
    <NStrands> = 0
    <WireD> = 0
    <BHPoints> = 0
  <EndBlock>
  <BeginBlock>
    <BlockName> = "u6"
    <Mu_x> = 63.839650875508823
    <Mu_y> = 63.839650875508823
    <H_c> = 0
    <H_cAngle> = 0
    <J_re> = 0
    <J_im> = 0
    <Sigma> = 0
    <d_lam> = 0
    <Phi_h> = 0
    <Phi_hx> = 0
    <Phi_hy> = 0
    <LamType> = 0
    <LamFill> = 1
    <NStrands> = 0
    <WireD> = 0
    <BHPoints> = 0
  <EndBlock>
  <BeginBlock>
    <BlockName> = "u7"
    <Mu_x> = 0.0070407582729502555
    <Mu_y> = 0.0070407582729502555
    <H_c> = 0
    <H_cAngle> = 0
    <J_re> = 0
    <J_im> = 0
    <Sigma> = 0
    <d_lam> = 0
    <Phi_h> = 0
    <Phi_hx> = 0
    <Phi_hy> = 0
    <LamType> = 0
    <LamFill> = 1
    <NStrands> = 0
    <WireD> = 0
    <BHPoints> = 0
  <EndBlock>
[CircuitProps]  = 3
  <BeginCircuit>
    <CircuitName> = "U"
    <TotalAmps_re> = 5.8201009944990671
    <TotalAmps_im> = 0
    <CircuitType> = 1
  <EndCircuit>
  <BeginCircuit>
    <CircuitName> = "V"
    <TotalAmps_re> = -2.9100504972495322
    <TotalAmps_im> = -0
    <CircuitType> = 1
  <EndCircuit>
  <BeginCircuit>
    <CircuitName> = "W"
    <TotalAmps_re> = -2.9100504972495362
    <TotalAmps_im> = -0
    <CircuitType> = 1
  <EndCircuit>
[NumPoints] = 190
93.600978180104605	-25.08030651412216	0	0
96.824739488327936	-3.8903359921948777	0	0
85.797852107799713	-45.043239945666258	0	0
98.756591140906067	-4.4079740823999174	0	0
87.729703760377845	-45.560878035871298	0	0
100.22176718141507	-11.704066794603241	0	0
92.646629788576618	-39.974864418991224	0	0
118.92717112490737	-16.716164675359941	0	0
137.58636228488416	-21.715879878093659	0	0
111.35203373206892	-44.986962299747923	0	0
130.01122489204568	-49.986677502481641	0	0
139.28957795063917	0	0	0
120.62831298766633	-69.644788975319585	0	0
120.09622056179269	3.5527136788005009e-015	0	0
104.00637790501152	-60.048110280896339	0	0
93.60097818010459	25.080306514122164	0	0
85.797852107799713	45.043239945666258	0	0
96.824739488327936	3.8903359921948741	0	0
87.729703760377845	45.560878035871305	0	0
98.756591140906067	4.4079740823999103	0	0
92.646629788576618	39.974864418991231	0	0
100.22176718141507	11.704066794603239	0	0
111.35203373206893	44.98696229974793	0	0
130.01122489204568	49.986677502481619	0	0
118.92717112490739	16.716164675359938	0	0
137.58636228488413	21.715879878093645	0	0
120.62831298766633	69.644788975319571	0	0
104.00637790501152	60.048110280896339	0	0
68.520671665982434	68.520671665982434	0	0
51.781499542661678	81.907516115604835	0	0
81.907516115604849	51.781499542661663	0	0
53.195713105034777	83.321729677977913	0	0
83.321729677977942	53.195713105034748	0	0
60.246902762423865	80.942562993973382	0	0
80.942562993973382	60.246902762423844	0	0
73.940208825159459	94.635869056708984	0	0
87.599684782402505	108.29534501395202	0	0
94.635869056708998	73.940208825159445	0	0
108.29534501395202	87.599684782402477	0	0
69.644788975319614	120.62831298766633	0	0
60.048110280896353	104.00637790501152	0	0
25.080306514122167	93.600978180104605	0	0
3.8903359921948848	96.824739488327936	0	0
45.043239945666265	85.797852107799713	0	0
4.4079740823999245	98.756591140906067	0	0
45.560878035871305	87.729703760377845	0	0
11.704066794603246	100.22176718141507	0	0
39.974864418991231	92.646629788576618	0	0
16.716164675359948	118.92717112490737	0	0
21.715879878093666	137.58636228488416	0	0
44.98696229974793	111.35203373206892	0	0
49.986677502481655	130.01122489204568	0	0
7.1054273576010019e-015	139.28957795063917	0	0
3.5527136788005009e-015	120.09622056179269	0	0
-25.08030651412215	93.60097818010459	0	0
-45.043239945666244	85.797852107799713	0	0
-3.8903359921948635	96.824739488327907	0	0
-45.560878035871283	87.729703760377859	0	0
-4.4079740823999032	98.756591140906053	0	0
-39.974864418991217	92.646629788576618	0	0
-11.704066794603225	100.22176718141506	0	0
-44.986962299747901	111.35203373206892	0	0
-49.986677502481619	130.01122489204568	0	0
-16.716164675359916	118.92717112490737	0	0
-21.715879878093631	137.58636228488413	0	0
-69.644788975319557	120.62831298766633	0	0
-60.048110280896317	104.00637790501153	0	0
-68.520671665982434	68.520671665982434	0	0
-81.907516115604835	51.781499542661663	0	0
-51.781499542661663	81.907516115604835	0	0
-83.321729677977942	53.195713105034756	0	0
-53.19571310503477	83.321729677977942	0	0
-80.942562993973368	60.246902762423844	0	0
-60.246902762423858	80.942562993973368	0	0
-94.635869056708984	73.940208825159445	0	0
-108.29534501395202	87.599684782402477	0	0
-73.940208825159473	94.635869056708984	0	0
-87.599684782402505	108.29534501395199	0	0
-120.62831298766633	69.644788975319585	0	0
-104.00637790501153	60.048110280896339	0	0
-93.600978180104605	25.080306514122171	0	0
-96.824739488327921	3.8903359921948883	0	0
-85.797852107799713	45.043239945666272	0	0
-98.756591140906053	4.4079740823999281	0	0
-87.729703760377845	45.560878035871312	0	0
-100.22176718141507	11.704066794603253	0	0
-92.646629788576618	39.974864418991238	0	0
-118.92717112490737	16.716164675359956	0	0
-137.58636228488413	21.715879878093673	0	0
-111.35203373206892	44.986962299747937	0	0
-130.01122489204568	49.986677502481662	0	0
-139.28957795063917	1.4210854715202004e-014	0	0
-120.09622056179269	1.0658141036401503e-014	0	0
-93.60097818010459	-25.080306514122178	0	0
-85.797852107799713	-45.043239945666272	0	0
-96.824739488327936	-3.8903359921948919	0	0
-87.729703760377845	-45.560878035871326	0	0
-98.756591140906067	-4.4079740823999387	0	0
-92.646629788576604	-39.974864418991245	0	0
-100.22176718141509	-11.704066794603257	0	0
-111.3520337320689	-44.986962299747951	0	0
-130.01122489204568	-49.986677502481655	0	0
-118.92717112490739	-16.716164675359959	0	0
-137.58636228488413	-21.715879878093673	0	0
-120.62831298766632	-69.644788975319614	0	0
-104.0063779050115	-60.048110280896353	0	0
-68.520671665982462	-68.520671665982391	0	0
-51.781499542661706	-81.907516115604793	0	0
-81.907516115604864	-51.781499542661628	0	0
-53.195713105034805	-83.321729677977899	0	0
-83.321729677977956	-53.195713105034727	0	0
-60.246902762423893	-80.94256299397334	0	0
-80.942562993973397	-60.246902762423801	0	0
-73.940208825159502	-94.635869056708941	0	0
-87.599684782402548	-108.29534501395197	0	0
-94.635869056709012	-73.940208825159402	0	0
-108.29534501395204	-87.599684782402448	0	0
-69.644788975319656	-120.62831298766628	0	0
-60.048110280896395	-104.00637790501149	0	0
-25.080306514122178	-93.600978180104605	0	0
-3.8903359921948955	-96.824739488327921	0	0
-45.043239945666272	-85.797852107799713	0	0
-4.4079740823999352	-98.756591140906053	0	0
-45.560878035871312	-87.729703760377845	0	0
-11.704066794603257	-100.22176718141507	0	0
-39.974864418991245	-92.646629788576604	0	0
-16.716164675359959	-118.92717112490737	0	0
-21.715879878093681	-137.58636228488413	0	0
-44.986962299747944	-111.3520337320689	0	0
-49.986677502481669	-130.01122489204568	0	0
-2.1316282072803006e-014	-139.28957795063917	0	0
-1.7763568394002505e-014	-120.09622056179268	0	0
25.080306514122178	-93.60097818010459	0	0
45.043239945666272	-85.797852107799713	0	0
3.8903359921948919	-96.824739488327936	0	0
45.560878035871326	-87.729703760377845	0	0
4.4079740823999387	-98.756591140906067	0	0
39.974864418991245	-92.646629788576604	0	0
11.704066794603257	-100.22176718141509	0	0
44.986962299747951	-111.3520337320689	0	0
49.986677502481655	-130.01122489204568	0	0
16.716164675359959	-118.92717112490739	0	0
21.715879878093673	-137.58636228488413	0	0
69.644788975319614	-120.62831298766632	0	0
60.048110280896353	-104.0063779050115	0	0
68.520671665982391	-68.520671665982462	0	0
81.907516115604793	-51.781499542661706	0	0
51.781499542661628	-81.907516115604864	0	0
83.321729677977899	-53.195713105034805	0	0
53.195713105034727	-83.321729677977956	0	0
80.94256299397334	-60.246902762423893	0	0
60.246902762423801	-80.942562993973397	0	0
94.635869056708941	-73.940208825159502	0	0
108.29534501395197	-87.599684782402548	0	0
73.940208825159402	-94.635869056709012	0	0
87.599684782402448	-108.29534501395204	0	0
173.8666487320323	-46.58742811845373	0	0
-173.8666487320323	46.587428118453751	0	0
91.430992788614944	0	0	10
64.651475011447957	64.651475011447943	0	10
64.651475011447957	-64.651475011447943	0	10
93.747842642221656	0	0	10
66.28973525392432	66.289735253924306	0	10
66.28973525392432	-66.289735253924306	0	10
5.5985336330721013e-015	91.430992788614944	0	10
-64.651475011447943	64.651475011447957	0	10
5.7403997709383248e-015	93.747842642221656	0	10
-66.289735253924306	66.28973525392432	0	10
-91.430992788614944	1.1197067266144203e-014	0	10
-64.651475011447971	-64.651475011447928	0	10
-93.747842642221656	1.148079954187665e-014	0	10
-66.289735253924334	-66.289735253924292	0	10
-1.6795600899216303e-014	-91.430992788614944	0	10
-1.7221199312814973e-014	-93.747842642221656	0	10
0	270	0	0
0	-270	0	0
0	-273.85714285714289	0	0
0	273.85714285714289	0	0
0	-277.71428571428572	0	0
0	277.71428571428572	0	0
0	-281.57142857142861	0	0
0	281.57142857142861	0	0
0	-285.42857142857144	0	0
0	285.42857142857144	0	0
0	-289.28571428571428	0	0
0	289.28571428571428	0	0
0	-293.14285714285717	0	0
0	293.14285714285717	0	0
0	-297.00000000000006	0	0
0	297.00000000000006	0	0
[NumSegments] = 100
1	3	-1	0	0	0
2	4	-1	0	0	0
3	5	-1	0	0	0
4	6	-1	0	0	0
5	7	-1	0	0	0
7	8	-1	0	0	0
6	9	-1	0	0	0
9	10	-1	0	0	0
16	18	-1	0	0	0
17	19	-1	0	0	0
18	20	-1	0	0	0
19	21	-1	0	0	0
20	22	-1	0	0	0
22	23	-1	0	0	0
21	24	-1	0	0	0
24	25	-1	0	0	0
29	31	-1	0	0	0
30	32	-1	0	0	0
31	33	-1	0	0	0
32	34	-1	0	0	0
33	35	-1	0	0	0
35	36	-1	0	0	0
34	37	-1	0	0	0
37	38	-1	0	0	0
42	44	-1	0	0	0
43	45	-1	0	0	0
44	46	-1	0	0	0
45	47	-1	0	0	0
46	48	-1	0	0	0
48	49	-1	0	0	0
47	50	-1	0	0	0
50	51	-1	0	0	0
55	57	-1	0	0	0
56	58	-1	0	0	0
57	59	-1	0	0	0
58	60	-1	0	0	0
59	61	-1	0	0	0
61	62	-1	0	0	0
60	63	-1	0	0	0
63	64	-1	0	0	0
68	70	-1	0	0	0
69	71	-1	0	0	0
70	72	-1	0	0	0
71	73	-1	0	0	0
72	74	-1	0	0	0
74	75	-1	0	0	0
73	76	-1	0	0	0
76	77	-1	0	0	0
81	83	-1	0	0	0
82	84	-1	0	0	0
83	85	-1	0	0	0
84	86	-1	0	0	0
85	87	-1	0	0	0
87	88	-1	0	0	0
86	89	-1	0	0	0
89	90	-1	0	0	0
94	96	-1	0	0	0
95	97	-1	0	0	0
96	98	-1	0	0	0
97	99	-1	0	0	0
98	100	-1	0	0	0
100	101	-1	0	0	0
99	102	-1	0	0	0
102	103	-1	0	0	0
107	109	-1	0	0	0
108	110	-1	0	0	0
109	111	-1	0	0	0
110	112	-1	0	0	0
111	113	-1	0	0	0
113	114	-1	0	0	0
112	115	-1	0	0	0
115	116	-1	0	0	0
120	122	-1	0	0	0
121	123	-1	0	0	0
122	124	-1	0	0	0
123	125	-1	0	0	0
124	126	-1	0	0	0
126	127	-1	0	0	0
125	128	-1	0	0	0
128	129	-1	0	0	0
133	135	-1	0	0	0
134	136	-1	0	0	0
135	137	-1	0	0	0
136	138	-1	0	0	0
137	139	-1	0	0	0
139	140	-1	0	0	0
138	141	-1	0	0	0
141	142	-1	0	0	0
146	148	-1	0	0	0
147	149	-1	0	0	0
148	150	-1	0	0	0
149	151	-1	0	0	0
150	152	-1	0	0	0
152	153	-1	0	0	0
151	154	-1	0	0	0
154	155	-1	0	0	0
159	162	-1	0	0	10
160	163	-1	0	0	10
165	167	-1	0	0	10
169	171	-1	0	0	10
[NumArcSegments] = 118
0	1	12.699141734967911	1	0	0	0	1
2	0	12.699141734967911	1	0	0	0	1
8	11	9.066708206794269	1	0	0	0	1
12	10	9.066708206794269	1	0	0	0	1
7	13	9.066708206794269	1	0	0	0	1
14	9	9.066708206794269	1	0	0	0	1
15	16	12.699141734967911	1	0	0	0	1
17	15	12.699141734967911	1	0	0	0	1
23	26	9.066708206794269	1	0	0	0	1
11	25	9.066708206794269	1	0	0	0	1
22	27	9.066708206794269	1	0	0	0	1
13	24	9.066708206794269	1	0	0	0	1
28	29	12.699141734967911	1	0	0	0	1
30	28	12.699141734967911	1	0	0	0	1
36	39	9.066708206794269	1	0	0	0	1
26	38	9.066708206794269	1	0	0	0	1
35	40	9.066708206794269	1	0	0	0	1
27	37	9.066708206794269	1	0	0	0	1
41	42	12.699141734967911	1	0	0	0	1
43	41	12.699141734967911	1	0	0	0	1
49	52	9.066708206794269	1	0	0	0	1
39	51	9.066708206794269	1	0	0	0	1
48	53	9.066708206794269	1	0	0	0	1
40	50	9.066708206794269	1	0	0	0	1
54	55	12.699141734967911	1	0	0	0	1
56	54	12.699141734967911	1	0	0	0	1
62	65	9.066708206794269	1	0	0	0	1
52	64	9.066708206794269	1	0	0	0	1
61	66	9.066708206794269	1	0	0	0	1
53	63	9.066708206794269	1	0	0	0	1
67	68	12.699141734967911	1	0	0	0	1
69	67	12.699141734967911	1	0	0	0	1
75	78	9.066708206794269	1	0	0	0	1
65	77	9.066708206794269	1	0	0	0	1
74	79	9.066708206794269	1	0	0	0	1
66	76	9.066708206794269	1	0	0	0	1
80	81	12.699141734967911	1	0	0	0	1
82	80	12.699141734967911	1	0	0	0	1
88	91	9.066708206794269	1	0	0	0	1
78	90	9.066708206794269	1	0	0	0	1
87	92	9.066708206794269	1	0	0	0	1
79	89	9.066708206794269	1	0	0	0	1
93	94	12.699141734967911	1	0	0	0	1
95	93	12.699141734967911	1	0	0	0	1
101	104	9.066708206794269	1	0	0	0	1
91	103	9.066708206794269	1	0	0	0	1
100	105	9.066708206794269	1	0	0	0	1
92	102	9.066708206794269	1	0	0	0	1
106	107	12.699141734967911	1	0	0	0	1
108	106	12.699141734967911	1	0	0	0	1
114	117	9.066708206794269	1	0	0	0	1
104	116	9.066708206794269	1	0	0	0	1
113	118	9.066708206794269	1	0	0	0	1
105	115	9.066708206794269	1	0	0	0	1
119	120	12.699141734967911	1	0	0	0	1
121	119	12.699141734967911	1	0	0	0	1
127	130	9.066708206794269	1	0	0	0	1
117	129	9.066708206794269	1	0	0	0	1
126	131	9.066708206794269	1	0	0	0	1
118	128	9.066708206794269	1	0	0	0	1
132	133	12.699141734967911	1	0	0	0	1
134	132	12.699141734967911	1	0	0	0	1
140	143	9.066708206794269	1	0	0	0	1
130	142	9.066708206794269	1	0	0	0	1
139	144	9.066708206794269	1	0	0	0	1
131	141	9.066708206794269	1	0	0	0	1
145	146	12.699141734967911	1	0	0	0	1
147	145	12.699141734967911	1	0	0	0	1
153	12	9.066708206794269	1	0	0	0	1
143	155	9.066708206794269	1	0	0	0	1
152	14	9.066708206794269	1	0	0	0	1
144	154	9.066708206794269	1	0	0	0	1
156	157	180	1	0	0	0	1
157	156	180	1	0	0	0	1
1	17	4.6017165300641754	1	0	0	0	1
16	30	4.6017165300641745	1	0	0	0	1
29	43	4.6017165300641771	1	0	0	0	1
42	56	4.6017165300641674	1	0	0	0	1
55	69	4.6017165300641896	1	0	0	0	1
68	82	4.6017165300641647	1	0	0	0	1
81	95	4.6017165300641922	1	0	0	0	1
94	108	4.6017165300641443	1	0	0	0	1
107	121	4.601716530064202	1	0	0	0	1
120	134	4.601716530064194	1	0	0	0	1
133	147	4.6017165300641452	1	0	0	0	1
146	2	4.6017165300642091	1	0	0	0	1
158	159	45	1	0	0	10	1
160	158	45	1	0	0	10	1
161	162	45	1	0	0	10	1
163	161	45	1	0	0	10	1
164	165	45	1	0	0	10	1
159	164	45	1	0	0	10	1
166	167	45	1	0	0	10	1
162	166	45	1	0	0	10	1
168	169	45	1	0	0	10	1
165	168	45	1	0	0	10	1
170	171	45	1	0	0	10	1
167	170	45	1	0	0	10	1
172	160	45	1	0	0	10	1
169	172	45	1	0	0	10	1
173	163	45	1	0	0	10	1
171	173	45	1	0	0	10	1
174	175	180	1	0	0	0	1
175	174	180	1	0	0	0	1
176	177	180	1	0	0	0	1
177	176	180	1	0	0	0	1
178	179	180	1	0	0	0	1
179	178	180	1	0	0	0	1
180	181	180	1	0	0	0	1
181	180	180	1	0	0	0	1
182	183	180	1	0	0	0	1
183	182	180	1	0	0	0	1
184	185	180	1	0	0	0	1
185	184	180	1	0	0	0	1
186	187	180	1	0	0	0	1
187	186	180	1	0	0	0	1
188	189	180	1	0	0	0	1
189	188	180	1	0	0	0	1
[NumHoles] = 0
[NumBlockLabels] = 39
110.49954186736946	3.5527136788005009e-015	2	-1	1	0	2	-314	0
95.695410363684118	55.249770933684722	2	-1	3	0	2	314	0
55.249770933684729	95.695410363684118	2	-1	2	0	2	-314	0
1.0658141036401503e-014	110.49954186736946	2	-1	1	0	2	314	0
-55.249770933684722	95.695410363684118	2	-1	3	0	2	-314	0
-95.695410363684104	55.249770933684751	2	-1	2	0	2	314	0
-110.49954186736946	4.2632564145606011e-014	2	-1	1	0	2	-314	0
-95.695410363684161	-55.249770933684687	2	-1	3	0	2	314	0
-55.249770933684715	-95.695410363684118	2	-1	2	0	2	-314	0
4.6185277824406512e-014	-110.49954186736946	2	-1	1	0	2	314	0
55.249770933684701	-95.695410363684132	2	-1	3	0	2	-314	0
95.695410363684118	-55.249770933684715	2	-1	2	0	2	314	0
129.69289925621592	0	2	-1	1	0	2	-314	0
112.31734544633893	64.846449628107962	2	-1	3	0	2	314	0
64.846449628107962	112.31734544633892	2	-1	2	0	2	-314	0
1.4210854715202004e-014	129.69289925621592	2	-1	1	0	2	314	0
-64.846449628107962	112.31734544633893	2	-1	3	0	2	-314	0
-112.31734544633889	64.84644962810799	2	-1	2	0	2	314	0
-129.69289925621592	5.6843418860808015e-014	2	-1	1	0	2	-314	0
-112.31734544633896	-64.846449628107905	2	-1	3	0	2	314	0
-64.846449628107948	-112.31734544633892	2	-1	2	0	2	-314	0
5.6843418860808015e-014	-129.69289925621592	2	-1	1	0	2	314	0
64.846449628107948	-112.31734544633895	2	-1	3	0	2	-314	0
112.31734544633892	-64.846449628107962	2	-1	2	0	2	314	0
154.20502470372952	-41.319111838185648	4	-1	0	0	1	1	0
92.589417715418307	0	3	-1	0	0	11	1	0
5.6694667020052134e-015	92.589417715418307	3	-1	0	270	12	1	0
-92.589417715418307	1.1338933404010427e-014	3	-1	0	180	13	1	0
-1.7008400106015638e-014	-92.589417715418307	3	-1	0	450	14	1	0
45.715496394307472	0	4	-1	0	0	10	1	0
95.325352907583934	0	1	-1	0	0	0	1	0
180.5	0	1	-1	0	0	0	1	0
266.70354017822132	53.050632565385733	5	-1	0	0	0	1	0
254.792776787577	105.53862374011511	6	-1	0	0	0	1	0
232.5145380117475	155.36124730512449	7	-1	0	0	0	1	0
200.46477246638625	200.46477246638619	8	-1	0	0	0	1	0
159.64707481699	238.92873216379564	9	-1	0	0	0	1	0
111.4428824108908	269.04691814632258	10	-1	0	0	0	1	0
57.565580017758954	289.4017138104104	11	-1	0	0	0	1	0
