[Format]      =  4.0
[Frequency]   =  0
[Precision]   =  1e-008
[MinAngle]    =  30
[DoSmartMesh] =  1
[Depth]       =  1
[LengthUnits] =  millimeters
[ProblemType] =  planar
[Coordinates] =  cartesian
[ACSolver]    =  0
[PrevType]    =  0
[PrevSoln]    =  ""
[Comment]     =  "Add comments here."
[PointProps]   = 0
[BdryProps]   = 0
[BlockProps]  = 11
  <BeginBlock>
    <BlockName> = "Air"
    <Mu_x> = 1
    <Mu_y> = 1
    <H_c> = 0
    <H_cAngle> = 0
    <J_re> = 0
    <J_im> = 0
    <Sigma> = 0
    <d_lam> = 0
    <Phi_h> = 0
    <Phi_hx> = 0
    <Phi_hy> = 0
    <LamType> = 0
    <LamFill> = 1
    <NStrands> = 0
    <WireD> = 0
    <BHPoints> = 0
  <EndBlock>
  <BeginBlock>
    <BlockName> = "18 AWG"
    <Mu_x> = 1
    <Mu_y> = 1
    <H_c> = 0
    <H_cAngle> = 0
    <J_re> = 0
    <J_im> = 0
    <Sigma> = 58
    <d_lam> = 0
    <Phi_h> = 0
    <Phi_hx> = 0
    <Phi_hy> = 0
    <LamType> = 3
    <LamFill> = 1
    <NStrands> = 1
    <WireD> = 1.0239652968433499
    <BHPoints> = 0
  <EndBlock>
  <BeginBlock>
    <BlockName> = "N40"
    <Mu_x> = 1.044
    <Mu_y> = 1.044
    <H_c> = 963000
    <H_cAngle> = 0
    <J_re> = 0
    <J_im> = 0
    <Sigma> = 555000
    <d_lam> = 0
    <Phi_h> = 0
    <Phi_hx> = 0
    <Phi_hy> = 0
    <LamType> = 0
    <LamFill> = 1
    <NStrands> = 0
    <WireD> = 0
    <BHPoints> = 0
  <EndBlock>
  <BeginBlock>
    <BlockName> = "M19_29Ga"
    <Mu_x> = 0
    <Mu_y> = 0
    <H_c> = 0
    <H_cAngle> = 0
    <J_re> = 0
    <J_im> = 0
    <Sigma> = 0
    <d_lam> = 0.35999999999999999
    <Phi_h> = 0
    <Phi_hx> = 0
    <Phi_hy> = 0
    <LamType> = 0
    <LamFill> = 0.91000000000000003
    <NStrands> = 0
    <WireD> = 0
    <BHPoints> = 187
      0	0
      0.51870000000000005	49
      0.66139999999999999	63
      0.72040000000000004	69
      0.76580000000000004	74
      0.80400000000000005	78
      0.83760000000000001	82
      0.86809999999999998	86
      0.89610000000000001	90
      0.92210000000000003	94
      0.9466	98
      0.96970000000000001	102
      0.99170000000000003	106
      1.0127999999999999	110
      1.0328999999999999	114
      1.0524	119
      1.0710999999999999	124
      1.0891999999999999	128
      1.1068	134
      1.1237999999999999	139
      1.1404000000000001	145
      1.1565000000000001	151
      1.1722999999999999	157
      1.1877	164
      1.2027000000000001	172
      1.2174	180
      1.2318	189
      1.2459	199
      1.2598	209
      1.2734000000000001	221
      1.2867	234
      1.2999000000000001	248
      1.3128	264
      1.3254999999999999	282
      1.3380000000000001	302
      1.3503000000000001	324
      1.3625	349
      1.3744000000000001	377
      1.3862000000000001	409
      1.3978999999999999	446
      1.4094	486
      1.4207000000000001	532
      1.4319	584
      1.4430000000000001	641
      1.4539	705
      1.4646999999999999	776
      1.4754	855
      1.486	942
      1.4964999999999999	1037
      1.5067999999999999	1141
      1.5169999999999999	1256
      1.5271999999999999	1380
      1.5371999999999999	1515
      1.5471999999999999	1661
      1.5569999999999999	1818
      1.5667	1987
      1.5764	2167
      1.5860000000000001	2357
      1.5954999999999999	2558
      1.6049	2769
      1.6142000000000001	2990
      1.6234	3220
      1.6326000000000001	3459
      1.6416999999999999	3706
      1.6507000000000001	3961
      1.6597	4224
      1.6685000000000001	4495
      1.6773	4773
      1.6860999999999999	5058
      1.6948000000000001	5352
      1.7034	5653
      1.7119	5962
      1.7203999999999999	6280
      1.7289000000000001	6606
      1.7372000000000001	6942
      1.7456	7286
      1.7538	7641
      1.762	8007
      1.7702	8384
      1.7783	8773
      1.7863	9175
      1.7943	9590
      1.8023	10020
      1.8102	10466
      1.8180000000000001	10929
      1.8258000000000001	11409
      1.8335999999999999	11909
      1.8412999999999999	12430
      1.849	12972
      1.8566	13539
      1.8642000000000001	14132
      1.8716999999999999	14752
      1.8792	15402
      1.8867	16085
      1.8940999999999999	16802
      1.9014	17557
      1.9088000000000001	18353
      1.9160999999999999	19192
      1.9233	20078
      1.9306000000000001	21016
      1.9377	22008
      1.9449000000000001	23059
      1.952	24174
      1.9591000000000001	25357
      1.9661	26614
      1.9731000000000001	27948
      1.9801	29367
      1.9870000000000001	30873
      1.994	32474
      2.0007999999999999	34174
      2.0076999999999998	35978
      2.0145	37891
      2.0213000000000001	39915
      2.028	42056
      2.0348000000000002	44315
      2.0413999999999999	46694
      2.0480999999999998	49194
      2.0547	51814
      2.0613999999999999	54555
      2.0678999999999998	57412
      2.0745	60385
      2.081	63468
      2.0874999999999999	66657
      2.0939999999999999	69947
      2.1004	73333
      2.1067999999999998	76809
      2.1132	80369
      2.1196000000000002	84007
      2.1259000000000001	87716
      2.1322000000000001	91492
      2.1385000000000001	95328
      2.1448	99220
      2.1509999999999998	103162
      2.1573000000000002	107149
      2.1634000000000002	111177
      2.1696	115242
      2.1758000000000002	119339
      2.1819000000000002	123466
      2.1880000000000002	127619
      2.1941000000000002	131794
      2.2000999999999999	135990
      2.2061999999999999	140203
      2.2122000000000002	144432
      2.2181999999999999	148673
      2.2242000000000002	152926
      2.2301000000000002	157188
      2.2360000000000002	161458
      2.242	165734
      2.2477999999999998	170015
      2.2536999999999998	174300
      2.2595999999999998	178587
      2.2654000000000001	182876
      2.2711999999999999	187166
      2.2770000000000001	191455
      2.2827999999999999	195743
      2.2885	200030
      2.2942999999999998	204314
      2.2999999999999998	208595
      2.3056999999999999	212872
      2.3113999999999999	217146
      2.3170000000000002	221415
      2.3227000000000002	225679
      2.3283	229938
      2.3338999999999999	234191
      2.3395000000000001	238438
      2.3451	242679
      2.3506999999999998	246914
      2.3561999999999999	251142
      2.3616999999999999	255362
      2.3672	259576
      2.3727	263783
      2.3782000000000001	267982
      2.3837000000000002	272173
      2.3891	276357
      2.3944999999999999	280533
      2.3999999999999999	284701
      2.4053	288860
      2.4106999999999998	293012
      2.4161000000000001	297155
      2.4215	301290
      2.4268000000000001	305417
      2.4321000000000002	309536
      2.4373999999999998	313646
      2.4426999999999999	317747
      2.448	321840
      2.4533	325924
      2.4584999999999999	330000
  <EndBlock>
  <BeginBlock>
    <BlockName> = "u1"
    <Mu_x> = 0.37737277525645235
    <Mu_y> = 0.37737277525645235
    <H_c> = 0
    <H_cAngle> = 0
    <J_re> = 0
    <J_im> = 0
    <Sigma> = 0
    <d_lam> = 0
    <Phi_h> = 0
    <Phi_hx> = 0
    <Phi_hy> = 0
    <LamType> = 0
    <LamFill> = 1
    <NStrands> = 0
    <WireD> = 0
    <BHPoints> = 0
  <EndBlock>
  <BeginBlock>
    <BlockName> = "u2"
    <Mu_x> = 7.7200304346442108
    <Mu_y> = 7.7200304346442108
    <H_c> = 0
    <H_cAngle> = 0
    <J_re> = 0
    <J_im> = 0
    <Sigma> = 0
    <d_lam> = 0
    <Phi_h> = 0
    <Phi_hx> = 0
    <Phi_hy> = 0
    <LamType> = 0
    <LamFill> = 1
    <NStrands> = 0
    <WireD> = 0
    <BHPoints> = 0
  <EndBlock>
  <BeginBlock>
    <BlockName> = "u3"
    <Mu_x> = 0.069449425895143593
    <Mu_y> = 0.069449425895143593
    <H_c> = 0
    <H_cAngle> = 0
    <J_re> = 0
    <J_im> = 0
    <Sigma> = 0
    <d_lam> = 0
    <Phi_h> = 0
    <Phi_hx> = 0
    <Phi_hy> = 0
    <LamType> = 0
    <LamFill> = 1
    <NStrands> = 0
    <WireD> = 0
    <BHPoints> = 0
  <EndBlock>
  <BeginBlock>
    <BlockName> = "u4"
    <Mu_x> = 23.31949550539958
    <Mu_y> = 23.31949550539958
    <H_c> = 0
    <H_cAngle> = 0
    <J_re> = 0
    <J_im> = 0
    <Sigma> = 0
    <d_lam> = 0
    <Phi_h> = 0
    <Phi_hx> = 0
    <Phi_hy> = 0
    <LamType> = 0
    <LamFill> = 1
    <NStrands> = 0
    <WireD> = 0
    <BHPoints> = 0
  <EndBlock>
  <BeginBlock>
    <BlockName> = "u5"
    <Mu_x> = 0.026883543752277105
    <Mu_y> = 0.026883543752277105
    <H_c> = 0
    <H_cAngle> = 0
    <J_re> = 0
    <J_im> = 0
    <Sigma> = 0
    <d_lam> = 0
    <Phi_h> = 0
    <Phi_hx> = 0
    <Phi_hy> = 0
    <LamType> = 0
    <LamFill> = 1
    <NStrands> = 0
    <WireD> = 0
    <BHPoints> = 0
  <EndBlock>
  <BeginBlock>
    <BlockName> = "u6"
    <Mu_x> = 63.839650875508823
    <Mu_y> = 63.839650875508823
    <H_c> = 0
    <H_cAngle> = 0
    <J_re> = 0
    <J_im> = 0
    <Sigma> = 0
    <d_lam> = 0
    <Phi_h> = 0
    <Phi_hx> = 0
    <Phi_hy> = 0
    <LamType> = 0
    <LamFill> = 1
    <NStrands> = 0
    <WireD> = 0
    <BHPoints> = 0
  <EndBlock>
  <BeginBlock>
    <BlockName> = "u7"
    <Mu_x> = 0.0070407582729502555
    <Mu_y> = 0.0070407582729502555
    <H_c> = 0
    <H_cAngle> = 0
    <J_re> = 0
    <J_im> = 0
    <Sigma> = 0
    <d_lam> = 0
    <Phi_h> = 0
    <Phi_hx> = 0
    <Phi_hy> = 0
    <LamType> = 0
    <LamFill> = 1
    <NStrands> = 0
    <WireD> = 0
    <BHPoints> = 0
  <EndBlock>
[CircuitProps]  = 3
  <BeginCircuit>
    <CircuitName> = "U"
    <TotalAmps_re> = 3.628773615858039
    <TotalAmps_im> = 0
    <CircuitType> = 1
  <EndCircuit>
  <BeginCircuit>
    <CircuitName> = "V"
    <TotalAmps_re> = -5.755095275104205
    <TotalAmps_im> = -0
    <CircuitType> = 1
  <EndCircuit>
  <BeginCircuit>
    <CircuitName> = "W"
    <TotalAmps_re> = 2.1263216592461633
    <TotalAmps_im> = 0
    <CircuitType> = 1
  <EndCircuit>
[NumPoints] = 191
114.63130164451876	-30.715364702977222	0	0
118.62668448542296	-3.3880191188152047	0	0
104.42773189050523	-56.37923161731014	0	0
120.55853613800109	-3.9056572090202479	0	0
106.35958354308336	-56.896869707515179	0	0
121.40976687528706	-17.573784504704193	0	0
113.93083463389715	-45.485539615936368	0	0
129.26727980216677	-19.679198747978713	0	0
137.11876873554178	-21.782998867058442	0	0
121.78834756077686	-47.590953859210885	0	0
129.63983649415184	-49.69475397829062	0	0
138.83823601297036	-7.1054273576010019e-015	0	0
120.23743940385185	-69.419118006485178	0	0
130.75664606747191	0	0	0
113.2385772080813	-65.378323033735953	0	0
114.63130164451876	30.715364702977226	0	0
104.42773189050523	56.37923161731014	0	0
118.62668448542296	3.3880191188152047	0	0
106.35958354308337	56.896869707515179	0	0
120.5585361380011	3.9056572090202444	0	0
113.93083463389715	45.485539615936375	0	0
121.40976687528706	17.573784504704193	0	0
121.78834756077686	47.590953859210885	0	0
129.63983649415187	49.694753978290613	0	0
129.26727980216677	19.67919874797871	0	0
137.11876873554178	21.782998867058438	0	0
120.23743940385185	69.419118006485164	0	0
113.23857720808131	65.378323033735938	0	0
83.915936941541531	83.915936941541517	0	0
62.247452868112831	101.03971277169001	0	0
101.03971277169002	62.247452868112802	0	0
63.661666430485923	102.45392633406311	0	0
102.45392633406311	63.661666430485894	0	0
75.924227259350715	96.357050129192942	0	0
96.357050129192942	75.924227259350687	0	0
81.676325942955884	102.10914881279813	0	0
87.424014757251157	107.85683762709338	0	0
102.10914881279813	81.676325942955856	0	0
107.85683762709341	87.424014757251143	0	0
69.419118006485206	120.23743940385184	0	0
65.378323033735981	113.23857720808128	0	0
30.715364702977229	114.63130164451876	0	0
3.3880191188152118	118.62668448542296	0	0
56.37923161731014	104.42773189050523	0	0
3.905657209020255	120.55853613800109	0	0
56.896869707515187	106.35958354308336	0	0
17.5737845047042	121.40976687528706	0	0
45.485539615936375	113.93083463389715	0	0
19.67919874797872	129.26727980216677	0	0
21.782998867058453	137.11876873554178	0	0
47.590953859210899	121.78834756077686	0	0
49.694753978290628	129.63983649415184	0	0
1.4210854715202004e-014	138.83823601297036	0	0
7.1054273576010019e-015	130.75664606747191	0	0
-30.715364702977205	114.63130164451876	0	0
-56.379231617310111	104.42773189050521	0	0
-3.3880191188151905	118.62668448542296	0	0
-56.896869707515151	106.35958354308336	0	0
-3.9056572090202302	120.55853613800109	0	0
-45.485539615936361	113.93083463389715	0	0
-17.573784504704172	121.40976687528705	0	0
-47.59095385921087	121.78834756077686	0	0
-49.694753978290599	129.63983649415187	0	0
-19.679198747978695	129.26727980216677	0	0
-21.782998867058424	137.11876873554178	0	0
-69.419118006485149	120.23743940385185	0	0
-65.37832303373591	113.2385772080813	0	0
-83.915936941541545	83.915936941541517	0	0
-101.03971277169002	62.247452868112802	0	0
-62.247452868112831	101.03971277169002	0	0
-102.45392633406311	63.661666430485894	0	0
-63.661666430485923	102.45392633406311	0	0
-96.357050129192942	75.924227259350687	0	0
-75.924227259350715	96.357050129192942	0	0
-102.10914881279814	81.676325942955856	0	0
-107.85683762709341	87.424014757251129	0	0
-81.676325942955884	102.10914881279811	0	0
-87.424014757251172	107.8568376270934	0	0
-120.23743940385185	69.419118006485164	0	0
-113.2385772080813	65.378323033735953	0	0
-114.63130164451876	30.715364702977237	0	0
-118.62668448542296	3.3880191188152189	0	0
-104.42773189050523	56.379231617310147	0	0
-120.55853613800109	3.9056572090202621	0	0
-106.35958354308336	56.896869707515194	0	0
-121.40976687528706	17.573784504704207	0	0
-113.93083463389713	45.485539615936382	0	0
-129.26727980216677	19.679198747978731	0	0
-137.11876873554178	21.78299886705846	0	0
-121.78834756077684	47.590953859210906	0	0
-129.63983649415184	49.694753978290635	0	0
-138.83823601297036	2.1316282072803006e-014	0	0
-130.75664606747191	1.4210854715202004e-014	0	0
-114.63130164451876	-30.715364702977244	0	0
-104.4277318905052	-56.379231617310168	0	0
-118.62668448542297	-3.3880191188152331	0	0
-106.35958354308335	-56.896869707515201	0	0
-120.5585361380011	-3.9056572090202728	0	0
-113.93083463389712	-45.485539615936375	0	0
-121.40976687528706	-17.573784504704214	0	0
-121.78834756077683	-47.590953859210899	0	0
-129.63983649415187	-49.694753978290649	0	0
-129.26727980216677	-19.679198747978738	0	0
-137.11876873554175	-21.782998867058467	0	0
-120.23743940385184	-69.419118006485206	0	0
-113.23857720808128	-65.378323033735967	0	0
-83.91593694154156	-83.915936941541489	0	0
-62.247452868112866	-101.03971277168999	0	0
-101.03971277169003	-62.247452868112774	0	0
-63.661666430485965	-102.45392633406307	0	0
-102.45392633406314	-63.661666430485859	0	0
-75.924227259350744	-96.357050129192913	0	0
-96.35705012919297	-75.924227259350658	0	0
-81.676325942955927	-102.10914881279808	0	0
-87.4240147572512	-107.85683762709336	0	0
-102.10914881279815	-81.676325942955827	0	0
-107.85683762709343	-87.424014757251101	0	0
-69.419118006485235	-120.23743940385179	0	0
-65.37832303373601	-113.23857720808125	0	0
-30.715364702977244	-114.63130164451876	0	0
-3.388019118815226	-118.62668448542296	0	0
-56.379231617310154	-104.42773189050521	0	0
-3.9056572090202692	-120.55853613800109	0	0
-56.896869707515194	-106.35958354308335	0	0
-17.573784504704214	-121.40976687528706	0	0
-45.485539615936389	-113.93083463389713	0	0
-19.679198747978738	-129.26727980216677	0	0
-21.782998867058467	-137.11876873554175	0	0
-47.590953859210913	-121.78834756077684	0	0
-49.694753978290642	-129.63983649415184	0	0
-2.8421709430404007e-014	-138.83823601297036	0	0
-2.1316282072803006e-014	-130.75664606747191	0	0
30.715364702977244	-114.63130164451876	0	0
56.379231617310168	-104.4277318905052	0	0
3.3880191188152331	-118.62668448542297	0	0
56.896869707515201	-106.35958354308335	0	0
3.9056572090202728	-120.5585361380011	0	0
45.485539615936375	-113.93083463389712	0	0
17.573784504704214	-121.40976687528706	0	0
47.590953859210899	-121.78834756077683	0	0
49.694753978290649	-129.63983649415187	0	0
19.679198747978738	-129.26727980216677	0	0
21.782998867058467	-137.11876873554175	0	0
69.419118006485206	-120.23743940385184	0	0
65.378323033735967	-113.23857720808128	0	0
83.915936941541489	-83.91593694154156	0	0
101.03971277168999	-62.247452868112866	0	0
62.247452868112774	-101.03971277169003	0	0
102.45392633406307	-63.661666430485965	0	0
63.661666430485859	-102.45392633406314	0	0
96.357050129192913	-75.924227259350744	0	0
75.924227259350658	-96.35705012919297	0	0
102.10914881279808	-81.676325942955927	0	0
107.85683762709336	-87.4240147572512	0	0
81.676325942955827	-102.10914881279815	0	0
87.424014757251101	-107.85683762709343	0	0
173.8666487320323	-46.58742811845373	0	0
-173.8666487320323	46.587428118453751	0	0
99.905239554190786	-48.11182765518425	0	10
104.66387195509409	36.623472774575575	0	10
36.623472774575575	-104.66387195509409	0	10
104.04946546844764	-50.107581670094788	0	10
109.00549339935765	38.142671823792043	0	10
38.142671823792043	-109.00549339935765	0	10
48.11182765518425	99.905239554190786	0	10
-36.623472774575575	104.66387195509409	0	10
50.107581670094788	104.04946546844764	0	10
-38.142671823792043	109.00549339935765	0	10
-99.905239554190786	48.111827655184314	0	10
-104.66387195509409	-36.623472774575561	0	10
-104.04946546844764	50.107581670094788	0	10
-109.00549339935763	-38.142671823792014	0	10
-48.111827655184314	-99.905239554190786	0	10
-50.107581670094817	-104.04946546844761	0	10
1.2803537684681309e-014	-6.1658587798882308e-015	0	10
0	270	0	0
0	-270	0	0
0	-273.85714285714289	0	0
0	273.85714285714289	0	0
0	-277.71428571428572	0	0
0	277.71428571428572	0	0
0	-281.57142857142861	0	0
0	281.57142857142861	0	0
0	-285.42857142857144	0	0
0	285.42857142857144	0	0
0	-289.28571428571428	0	0
0	289.28571428571428	0	0
0	-293.14285714285717	0	0
0	293.14285714285717	0	0
0	-297.00000000000006	0	0
0	297.00000000000006	0	0
[NumSegments] = 100
1	3	-1	0	0	0
2	4	-1	0	0	0
3	5	-1	0	0	0
4	6	-1	0	0	0
5	7	-1	0	0	0
7	8	-1	0	0	0
6	9	-1	0	0	0
9	10	-1	0	0	0
16	18	-1	0	0	0
17	19	-1	0	0	0
18	20	-1	0	0	0
19	21	-1	0	0	0
20	22	-1	0	0	0
22	23	-1	0	0	0
21	24	-1	0	0	0
24	25	-1	0	0	0
29	31	-1	0	0	0
30	32	-1	0	0	0
31	33	-1	0	0	0
32	34	-1	0	0	0
33	35	-1	0	0	0
35	36	-1	0	0	0
34	37	-1	0	0	0
37	38	-1	0	0	0
42	44	-1	0	0	0
43	45	-1	0	0	0
44	46	-1	0	0	0
45	47	-1	0	0	0
46	48	-1	0	0	0
48	49	-1	0	0	0
47	50	-1	0	0	0
50	51	-1	0	0	0
55	57	-1	0	0	0
56	58	-1	0	0	0
57	59	-1	0	0	0
58	60	-1	0	0	0
59	61	-1	0	0	0
61	62	-1	0	0	0
60	63	-1	0	0	0
63	64	-1	0	0	0
68	70	-1	0	0	0
69	71	-1	0	0	0
70	72	-1	0	0	0
71	73	-1	0	0	0
72	74	-1	0	0	0
74	75	-1	0	0	0
73	76	-1	0	0	0
76	77	-1	0	0	0
81	83	-1	0	0	0
82	84	-1	0	0	0
83	85	-1	0	0	0
84	86	-1	0	0	0
85	87	-1	0	0	0
87	88	-1	0	0	0
86	89	-1	0	0	0
89	90	-1	0	0	0
94	96	-1	0	0	0
95	97	-1	0	0	0
96	98	-1	0	0	0
97	99	-1	0	0	0
98	100	-1	0	0	0
100	101	-1	0	0	0
99	102	-1	0	0	0
102	103	-1	0	0	0
107	109	-1	0	0	0
108	110	-1	0	0	0
109	111	-1	0	0	0
110	112	-1	0	0	0
111	113	-1	0	0	0
113	114	-1	0	0	0
112	115	-1	0	0	0
115	116	-1	0	0	0
120	122	-1	0	0	0
121	123	-1	0	0	0
122	124	-1	0	0	0
123	125	-1	0	0	0
124	126	-1	0	0	0
126	127	-1	0	0	0
125	128	-1	0	0	0
128	129	-1	0	0	0
133	135	-1	0	0	0
134	136	-1	0	0	0
135	137	-1	0	0	0
136	138	-1	0	0	0
137	139	-1	0	0	0
139	140	-1	0	0	0
138	141	-1	0	0	0
141	142	-1	0	0	0
146	148	-1	0	0	0
147	149	-1	0	0	0
148	150	-1	0	0	0
149	151	-1	0	0	0
150	152	-1	0	0	0
152	153	-1	0	0	0
151	154	-1	0	0	0
154	155	-1	0	0	0
159	162	-1	0	0	10
160	163	-1	0	0	10
165	167	-1	0	0	10
169	171	-1	0	0	10
[NumArcSegments] = 118
0	1	13.364057442074028	1	0	0	0	1
2	0	13.364057442074028	1	0	0	0	1
8	11	9.1214438325361211	1	0	0	0	1
12	10	9.1214438325361211	1	0	0	0	1
7	13	9.1214438325361211	1	0	0	0	1
14	9	9.1214438325361211	1	0	0	0	1
15	16	13.364057442074028	1	0	0	0	1
17	15	13.364057442074028	1	0	0	0	1
23	26	9.1214438325361211	1	0	0	0	1
11	25	9.1214438325361211	1	0	0	0	1
22	27	9.1214438325361211	1	0	0	0	1
13	24	9.1214438325361211	1	0	0	0	1
28	29	13.364057442074028	1	0	0	0	1
30	28	13.364057442074028	1	0	0	0	1
36	39	9.1214438325361211	1	0	0	0	1
26	38	9.1214438325361211	1	0	0	0	1
35	40	9.1214438325361211	1	0	0	0	1
27	37	9.1214438325361211	1	0	0	0	1
41	42	13.364057442074028	1	0	0	0	1
43	41	13.364057442074028	1	0	0	0	1
49	52	9.1214438325361211	1	0	0	0	1
39	51	9.1214438325361211	1	0	0	0	1
48	53	9.1214438325361211	1	0	0	0	1
40	50	9.1214438325361211	1	0	0	0	1
54	55	13.364057442074028	1	0	0	0	1
56	54	13.364057442074028	1	0	0	0	1
62	65	9.1214438325361211	1	0	0	0	1
52	64	9.1214438325361211	1	0	0	0	1
61	66	9.1214438325361211	1	0	0	0	1
53	63	9.1214438325361211	1	0	0	0	1
67	68	13.364057442074028	1	0	0	0	1
69	67	13.364057442074028	1	0	0	0	1
75	78	9.1214438325361211	1	0	0	0	1
65	77	9.1214438325361211	1	0	0	0	1
74	79	9.1214438325361211	1	0	0	0	1
66	76	9.1214438325361211	1	0	0	0	1
80	81	13.364057442074028	1	0	0	0	1
82	80	13.364057442074028	1	0	0	0	1
88	91	9.1214438325361211	1	0	0	0	1
78	90	9.1214438325361211	1	0	0	0	1
87	92	9.1214438325361211	1	0	0	0	1
79	89	9.1214438325361211	1	0	0	0	1
93	94	13.364057442074028	1	0	0	0	1
95	93	13.364057442074028	1	0	0	0	1
101	104	9.1214438325361211	1	0	0	0	1
91	103	9.1214438325361211	1	0	0	0	1
100	105	9.1214438325361211	1	0	0	0	1
92	102	9.1214438325361211	1	0	0	0	1
106	107	13.364057442074028	1	0	0	0	1
108	106	13.364057442074028	1	0	0	0	1
114	117	9.1214438325361211	1	0	0	0	1
104	116	9.1214438325361211	1	0	0	0	1
113	118	9.1214438325361211	1	0	0	0	1
105	115	9.1214438325361211	1	0	0	0	1
119	120	13.364057442074028	1	0	0	0	1
121	119	13.364057442074028	1	0	0	0	1
127	130	9.1214438325361211	1	0	0	0	1
117	129	9.1214438325361211	1	0	0	0	1
126	131	9.1214438325361211	1	0	0	0	1
118	128	9.1214438325361211	1	0	0	0	1
132	133	13.364057442074028	1	0	0	0	1
134	132	13.364057442074028	1	0	0	0	1
140	143	9.1214438325361211	1	0	0	0	1
130	142	9.1214438325361211	1	0	0	0	1
139	144	9.1214438325361211	1	0	0	0	1
131	141	9.1214438325361211	1	0	0	0	1
145	146	13.364057442074028	1	0	0	0	1
147	145	13.364057442074028	1	0	0	0	1
153	12	9.1214438325361211	1	0	0	0	1
143	155	9.1214438325361211	1	0	0	0	1
152	14	9.1214438325361211	1	0	0	0	1
144	154	9.1214438325361211	1	0	0	0	1
156	157	180	1	0	0	0	1
157	156	180	1	0	0	0	1
1	17	3.2718851158519406	1	0	0	0	1
16	30	3.2718851158519393	1	0	0	0	1
29	43	3.2718851158519451	1	0	0	0	1
42	56	3.2718851158519349	1	0	0	0	1
55	69	3.2718851158519615	1	0	0	0	1
68	82	3.2718851158519291	1	0	0	0	1
81	95	3.2718851158519575	1	0	0	0	1
94	108	3.2718851158519096	1	0	0	0	1
107	121	3.2718851158519597	1	0	0	0	1
120	134	3.271885115851958	1	0	0	0	1
133	147	3.2718851158519011	1	0	0	0	1
146	2	3.2718851158519682	1	0	0	0	1
158	159	45	1	0	0	10	1
160	158	45	1	0	0	10	1
161	162	45	1	0	0	10	1
163	161	45	1	0	0	10	1
164	165	45	1	0	0	10	1
159	164	45	1	0	0	10	1
166	167	45	1	0	0	10	1
162	166	45	1	0	0	10	1
168	169	45	1	0	0	10	1
165	168	45	1	0	0	10	1
170	171	45	1	0	0	10	1
167	170	45	1	0	0	10	1
172	160	45	1	0	0	10	1
169	172	45	1	0	0	10	1
173	163	45	1	0	0	10	1
171	173	45	1	0	0	10	1
175	176	180	1	0	0	0	1
176	175	180	1	0	0	0	1
177	178	180	1	0	0	0	1
178	177	180	1	0	0	0	1
179	180	180	1	0	0	0	1
180	179	180	1	0	0	0	1
181	182	180	1	0	0	0	1
182	181	180	1	0	0	0	1
183	184	180	1	0	0	0	1
184	183	180	1	0	0	0	1
185	186	180	1	0	0	0	1
186	185	180	1	0	0	0	1
187	188	180	1	0	0	0	1
188	187	180	1	0	0	0	1
189	190	180	1	0	0	0	1
190	189	180	1	0	0	0	1
[NumHoles] = 0
[NumBlockLabels] = 39
126.71585109472267	3.5527136788005009e-015	2	-1	1	0	2	-155	0
109.739146110196	63.357925547361319	2	-1	3	0	2	155	0
63.357925547361333	109.739146110196	2	-1	2	0	2	-155	0
1.0658141036401503e-014	126.71585109472267	2	-1	1	0	2	155	0
-63.357925547361319	109.739146110196	2	-1	3	0	2	-155	0
-109.73914611019597	63.357925547361361	2	-1	2	0	2	155	0
-126.71585109472267	4.9737991503207013e-014	2	-1	1	0	2	-155	0
-109.73914611019603	-63.357925547361269	2	-1	3	0	2	155	0
-63.357925547361319	-109.739146110196	2	-1	2	0	2	-155	0
5.3290705182007514e-014	-126.71585109472267	2	-1	1	0	2	155	0
63.357925547361305	-109.739146110196	2	-1	3	0	2	-155	0
109.739146110196	-63.357925547361319	2	-1	2	0	2	155	0
134.79744104022112	0	2	-1	1	0	2	-155	0
116.73800830596656	67.398720520110558	2	-1	3	0	2	155	0
67.398720520110558	116.73800830596656	2	-1	2	0	2	-155	0
1.4210854715202004e-014	134.79744104022112	2	-1	1	0	2	155	0
-67.398720520110558	116.73800830596656	2	-1	3	0	2	-155	0
-116.73800830596652	67.398720520110572	2	-1	2	0	2	155	0
-134.79744104022114	5.6843418860808015e-014	2	-1	1	0	2	-155	0
-116.73800830596659	-67.398720520110501	2	-1	3	0	2	155	0
-67.398720520110544	-116.73800830596656	2	-1	2	0	2	-155	0
5.6843418860808015e-014	-134.79744104022112	2	-1	1	0	2	155	0
67.398720520110544	-116.73800830596657	2	-1	3	0	2	-155	0
116.73800830596656	-67.398720520110544	2	-1	2	0	2	155	0
153.98704328668867	-41.260703893524564	4	-1	0	0	1	1	0
101.9773525113192	-49.109704662639544	3	-1	0	334.28571428571433	11	1	0
49.109704662639565	101.9773525113192	3	-1	0	604.28571428571422	12	1	0
-101.9773525113192	49.109704662639565	3	-1	0	514.28571428571433	13	1	0
-49.109704662639579	-101.97735251131922	3	-1	0	784.28571428571377	14	1	0
49.952619777095435	-24.055913827592171	4	-1	0	0	10	1	0
117.08062506204584	0	1	-1	0	0	0	1	0
180.5	0	1	-1	0	0	0	1	0
266.70354017822132	53.050632565385733	5	-1	0	0	0	1	0
254.792776787577	105.53862374011511	6	-1	0	0	0	1	0
232.5145380117475	155.36124730512449	7	-1	0	0	0	1	0
200.46477246638625	200.46477246638619	8	-1	0	0	0	1	0
159.64707481699	238.92873216379564	9	-1	0	0	0	1	0
111.4428824108908	269.04691814632258	10	-1	0	0	0	1	0
57.565580017758954	289.4017138104104	11	-1	0	0	0	1	0
