[Format]      =  4.0
[Frequency]   =  0
[Precision]   =  1e-008
[MinAngle]    =  30
[DoSmartMesh] =  1
[Depth]       =  1
[LengthUnits] =  millimeters
[ProblemType] =  planar
[Coordinates] =  cartesian
[ACSolver]    =  0
[PrevType]    =  0
[PrevSoln]    =  ""
[Comment]     =  "Add comments here."
[PointProps]   = 0
[BdryProps]   = 0
[BlockProps]  = 11
  <BeginBlock>
    <BlockName> = "Air"
    <Mu_x> = 1
    <Mu_y> = 1
    <H_c> = 0
    <H_cAngle> = 0
    <J_re> = 0
    <J_im> = 0
    <Sigma> = 0
    <d_lam> = 0
    <Phi_h> = 0
    <Phi_hx> = 0
    <Phi_hy> = 0
    <LamType> = 0
    <LamFill> = 1
    <NStrands> = 0
    <WireD> = 0
    <BHPoints> = 0
  <EndBlock>
  <BeginBlock>
    <BlockName> = "18 AWG"
    <Mu_x> = 1
    <Mu_y> = 1
    <H_c> = 0
    <H_cAngle> = 0
    <J_re> = 0
    <J_im> = 0
    <Sigma> = 58
    <d_lam> = 0
    <Phi_h> = 0
    <Phi_hx> = 0
    <Phi_hy> = 0
    <LamType> = 3
    <LamFill> = 1
    <NStrands> = 1
    <WireD> = 1.0239652968433499
    <BHPoints> = 0
  <EndBlock>
  <BeginBlock>
    <BlockName> = "N40"
    <Mu_x> = 1.044
    <Mu_y> = 1.044
    <H_c> = 963000
    <H_cAngle> = 0
    <J_re> = 0
    <J_im> = 0
    <Sigma> = 555000
    <d_lam> = 0
    <Phi_h> = 0
    <Phi_hx> = 0
    <Phi_hy> = 0
    <LamType> = 0
    <LamFill> = 1
    <NStrands> = 0
    <WireD> = 0
    <BHPoints> = 0
  <EndBlock>
  <BeginBlock>
    <BlockName> = "M19_29Ga"
    <Mu_x> = 0
    <Mu_y> = 0
    <H_c> = 0
    <H_cAngle> = 0
    <J_re> = 0
    <J_im> = 0
    <Sigma> = 0
    <d_lam> = 0.35999999999999999
    <Phi_h> = 0
    <Phi_hx> = 0
    <Phi_hy> = 0
    <LamType> = 0
    <LamFill> = 0.91000000000000003
    <NStrands> = 0
    <WireD> = 0
    <BHPoints> = 187
      0	0
      0.51870000000000005	49
      0.66139999999999999	63
      0.72040000000000004	69
      0.76580000000000004	74
      0.80400000000000005	78
      0.83760000000000001	82
      0.86809999999999998	86
      0.89610000000000001	90
      0.92210000000000003	94
      0.9466	98
      0.96970000000000001	102
      0.99170000000000003	106
      1.0127999999999999	110
      1.0328999999999999	114
      1.0524	119
      1.0710999999999999	124
      1.0891999999999999	128
      1.1068	134
      1.1237999999999999	139
      1.1404000000000001	145
      1.1565000000000001	151
      1.1722999999999999	157
      1.1877	164
      1.2027000000000001	172
      1.2174	180
      1.2318	189
      1.2459	199
      1.2598	209
      1.2734000000000001	221
      1.2867	234
      1.2999000000000001	248
      1.3128	264
      1.3254999999999999	282
      1.3380000000000001	302
      1.3503000000000001	324
      1.3625	349
      1.3744000000000001	377
      1.3862000000000001	409
      1.3978999999999999	446
      1.4094	486
      1.4207000000000001	532
      1.4319	584
      1.4430000000000001	641
      1.4539	705
      1.4646999999999999	776
      1.4754	855
      1.486	942
      1.4964999999999999	1037
      1.5067999999999999	1141
      1.5169999999999999	1256
      1.5271999999999999	1380
      1.5371999999999999	1515
      1.5471999999999999	1661
      1.5569999999999999	1818
      1.5667	1987
      1.5764	2167
      1.5860000000000001	2357
      1.5954999999999999	2558
      1.6049	2769
      1.6142000000000001	2990
      1.6234	3220
      1.6326000000000001	3459
      1.6416999999999999	3706
      1.6507000000000001	3961
      1.6597	4224
      1.6685000000000001	4495
      1.6773	4773
      1.6860999999999999	5058
      1.6948000000000001	5352
      1.7034	5653
      1.7119	5962
      1.7203999999999999	6280
      1.7289000000000001	6606
      1.7372000000000001	6942
      1.7456	7286
      1.7538	7641
      1.762	8007
      1.7702	8384
      1.7783	8773
      1.7863	9175
      1.7943	9590
      1.8023	10020
      1.8102	10466
      1.8180000000000001	10929
      1.8258000000000001	11409
      1.8335999999999999	11909
      1.8412999999999999	12430
      1.849	12972
      1.8566	13539
      1.8642000000000001	14132
      1.8716999999999999	14752
      1.8792	15402
      1.8867	16085
      1.8940999999999999	16802
      1.9014	17557
      1.9088000000000001	18353
      1.9160999999999999	19192
      1.9233	20078
      1.9306000000000001	21016
      1.9377	22008
      1.9449000000000001	23059
      1.952	24174
      1.9591000000000001	25357
      1.9661	26614
      1.9731000000000001	27948
      1.9801	29367
      1.9870000000000001	30873
      1.994	32474
      2.0007999999999999	34174
      2.0076999999999998	35978
      2.0145	37891
      2.0213000000000001	39915
      2.028	42056
      2.0348000000000002	44315
      2.0413999999999999	46694
      2.0480999999999998	49194
      2.0547	51814
      2.0613999999999999	54555
      2.0678999999999998	57412
      2.0745	60385
      2.081	63468
      2.0874999999999999	66657
      2.0939999999999999	69947
      2.1004	73333
      2.1067999999999998	76809
      2.1132	80369
      2.1196000000000002	84007
      2.1259000000000001	87716
      2.1322000000000001	91492
      2.1385000000000001	95328
      2.1448	99220
      2.1509999999999998	103162
      2.1573000000000002	107149
      2.1634000000000002	111177
      2.1696	115242
      2.1758000000000002	119339
      2.1819000000000002	123466
      2.1880000000000002	127619
      2.1941000000000002	131794
      2.2000999999999999	135990
      2.2061999999999999	140203
      2.2122000000000002	144432
      2.2181999999999999	148673
      2.2242000000000002	152926
      2.2301000000000002	157188
      2.2360000000000002	161458
      2.242	165734
      2.2477999999999998	170015
      2.2536999999999998	174300
      2.2595999999999998	178587
      2.2654000000000001	182876
      2.2711999999999999	187166
      2.2770000000000001	191455
      2.2827999999999999	195743
      2.2885	200030
      2.2942999999999998	204314
      2.2999999999999998	208595
      2.3056999999999999	212872
      2.3113999999999999	217146
      2.3170000000000002	221415
      2.3227000000000002	225679
      2.3283	229938
      2.3338999999999999	234191
      2.3395000000000001	238438
      2.3451	242679
      2.3506999999999998	246914
      2.3561999999999999	251142
      2.3616999999999999	255362
      2.3672	259576
      2.3727	263783
      2.3782000000000001	267982
      2.3837000000000002	272173
      2.3891	276357
      2.3944999999999999	280533
      2.3999999999999999	284701
      2.4053	288860
      2.4106999999999998	293012
      2.4161000000000001	297155
      2.4215	301290
      2.4268000000000001	305417
      2.4321000000000002	309536
      2.4373999999999998	313646
      2.4426999999999999	317747
      2.448	321840
      2.4533	325924
      2.4584999999999999	330000
  <EndBlock>
  <BeginBlock>
    <BlockName> = "u1"
    <Mu_x> = 0.37737277525645235
    <Mu_y> = 0.37737277525645235
    <H_c> = 0
    <H_cAngle> = 0
    <J_re> = 0
    <J_im> = 0
    <Sigma> = 0
    <d_lam> = 0
    <Phi_h> = 0
    <Phi_hx> = 0
    <Phi_hy> = 0
    <LamType> = 0
    <LamFill> = 1
    <NStrands> = 0
    <WireD> = 0
    <BHPoints> = 0
  <EndBlock>
  <BeginBlock>
    <BlockName> = "u2"
    <Mu_x> = 7.7200304346442108
    <Mu_y> = 7.7200304346442108
    <H_c> = 0
    <H_cAngle> = 0
    <J_re> = 0
    <J_im> = 0
    <Sigma> = 0
    <d_lam> = 0
    <Phi_h> = 0
    <Phi_hx> = 0
    <Phi_hy> = 0
    <LamType> = 0
    <LamFill> = 1
    <NStrands> = 0
    <WireD> = 0
    <BHPoints> = 0
  <EndBlock>
  <BeginBlock>
    <BlockName> = "u3"
    <Mu_x> = 0.069449425895143593
    <Mu_y> = 0.069449425895143593
    <H_c> = 0
    <H_cAngle> = 0
    <J_re> = 0
    <J_im> = 0
    <Sigma> = 0
    <d_lam> = 0
    <Phi_h> = 0
    <Phi_hx> = 0
    <Phi_hy> = 0
    <LamType> = 0
    <LamFill> = 1
    <NStrands> = 0
    <WireD> = 0
    <BHPoints> = 0
  <EndBlock>
  <BeginBlock>
    <BlockName> = "u4"
    <Mu_x> = 23.31949550539958
    <Mu_y> = 23.31949550539958
    <H_c> = 0
    <H_cAngle> = 0
    <J_re> = 0
    <J_im> = 0
    <Sigma> = 0
    <d_lam> = 0
    <Phi_h> = 0
    <Phi_hx> = 0
    <Phi_hy> = 0
    <LamType> = 0
    <LamFill> = 1
    <NStrands> = 0
    <WireD> = 0
    <BHPoints> = 0
  <EndBlock>
  <BeginBlock>
    <BlockName> = "u5"
    <Mu_x> = 0.026883543752277105
    <Mu_y> = 0.026883543752277105
    <H_c> = 0
    <H_cAngle> = 0
    <J_re> = 0
    <J_im> = 0
    <Sigma> = 0
    <d_lam> = 0
    <Phi_h> = 0
    <Phi_hx> = 0
    <Phi_hy> = 0
    <LamType> = 0
    <LamFill> = 1
    <NStrands> = 0
    <WireD> = 0
    <BHPoints> = 0
  <EndBlock>
  <BeginBlock>
    <BlockName> = "u6"
    <Mu_x> = 63.839650875508823
    <Mu_y> = 63.839650875508823
    <H_c> = 0
    <H_cAngle> = 0
    <J_re> = 0
    <J_im> = 0
    <Sigma> = 0
    <d_lam> = 0
    <Phi_h> = 0
    <Phi_hx> = 0
    <Phi_hy> = 0
    <LamType> = 0
    <LamFill> = 1
    <NStrands> = 0
    <WireD> = 0
    <BHPoints> = 0
  <EndBlock>
  <BeginBlock>
    <BlockName> = "u7"
    <Mu_x> = 0.0070407582729502555
    <Mu_y> = 0.0070407582729502555
    <H_c> = 0
    <H_cAngle> = 0
    <J_re> = 0
    <J_im> = 0
    <Sigma> = 0
    <d_lam> = 0
    <Phi_h> = 0
    <Phi_hx> = 0
    <Phi_hy> = 0
    <LamType> = 0
    <LamFill> = 1
    <NStrands> = 0
    <WireD> = 0
    <BHPoints> = 0
  <EndBlock>
[CircuitProps]  = 3
  <BeginCircuit>
    <CircuitName> = "U"
    <TotalAmps_re> = -1.295094309016015
    <TotalAmps_im> = -0
    <CircuitType> = 1
  <EndCircuit>
  <BeginCircuit>
    <CircuitName> = "V"
    <TotalAmps_re> = 5.5615302372721853
    <TotalAmps_im> = 0
    <CircuitType> = 1
  <EndCircuit>
  <BeginCircuit>
    <CircuitName> = "W"
    <TotalAmps_re> = -4.2664359282561675
    <TotalAmps_im> = -0
    <CircuitType> = 1
  <EndCircuit>
[NumPoints] = 190
92.312368061352501	-24.735024473443964	0	0
95.528744539246333	-2.7665320442565609	0	0
84.113585584749586	-45.36848523891328	0	0
97.460596191824465	-3.2841701344616041	0	0
86.045437237327718	-45.886123329118327	0	0
99.454649056621221	-4.7663277594109559	0	0
88.513416487205504	-45.59956360589775	0	0
121.05000901315024	-10.552787020022315	0	0
142.51971988925371	-16.305578711003928	0	0
110.10877644373453	-51.386022866509109	0	0
131.57848731983799	-57.138814557490718	0	0
143.44944215441234	0	0	0
124.23086106442742	-71.724721077206155	0	0
121.50911898278953	0	0	0
105.22998383056169	-60.754559491394758	0	0
92.312368061352501	24.735024473443961	0	0
84.113585584749586	45.36848523891328	0	0
95.528744539246347	2.7665320442565573	0	0
86.045437237327718	45.886123329118327	0	0
97.460596191824479	3.284170134461597	0	0
88.513416487205518	45.599563605897757	0	0
99.454649056621236	4.7663277594109559	0	0
110.10877644373453	51.386022866509094	0	0
131.57848731983799	57.138814557490718	0	0
121.05000901315024	10.552787020022311	0	0
142.51971988925371	16.305578711003925	0	0
124.23086106442742	71.724721077206155	0	0
105.22998383056171	60.754559491394758	0	0
67.57734358790853	67.57734358790853	0	0
50.160259300333053	81.347053540493022	0	0
81.347053540493022	50.160259300333038	0	0
51.574472862706145	82.761267102866114	0	0
82.761267102866128	51.574472862706152	0	0
53.855085450723479	83.747088727794548	0	0
83.747088727794562	53.85508545072345	0	0
69.663986146641136	99.555989423712205	0	0
85.380905331762989	115.27290860883406	0	0
99.555989423712219	69.663986146641122	0	0
115.27290860883406	85.38090533176296	0	0
71.724721077206169	124.23086106442742	0	0
60.75455949139478	105.22998383056169	0	0
24.735024473443971	92.312368061352501	0	0
2.766532044256568	95.528744539246333	0	0
45.368485238913294	84.113585584749586	0	0
3.2841701344616112	97.460596191824465	0	0
45.886123329118334	86.045437237327718	0	0
4.766327759410963	99.454649056621207	0	0
45.599563605897757	88.513416487205504	0	0
10.552787020022322	121.05000901315023	0	0
16.305578711003935	142.51971988925371	0	0
51.386022866509109	110.10877644373453	0	0
57.138814557490726	131.57848731983799	0	0
7.1054273576010019e-015	143.44944215441234	0	0
3.5527136788005009e-015	121.50911898278952	0	0
-24.735024473443946	92.312368061352501	0	0
-45.368485238913266	84.113585584749572	0	0
-2.7665320442565431	95.528744539246347	0	0
-45.886123329118313	86.045437237327718	0	0
-3.2841701344615863	97.460596191824465	0	0
-45.599563605897721	88.513416487205518	0	0
-4.7663277594109452	99.454649056621207	0	0
-51.38602286650908	110.10877644373454	0	0
-57.138814557490704	131.57848731983802	0	0
-10.552787020022294	121.05000901315023	0	0
-16.305578711003911	142.51971988925368	0	0
-71.724721077206127	124.23086106442742	0	0
-60.75455949139473	105.22998383056171	0	0
-67.577343587908544	67.57734358790853	0	0
-81.347053540493036	50.160259300333038	0	0
-50.16025930033306	81.347053540493008	0	0
-82.761267102866114	51.574472862706131	0	0
-51.574472862706159	82.7612671028661	0	0
-83.747088727794562	53.855085450723458	0	0
-53.855085450723465	83.747088727794548	0	0
-99.555989423712234	69.663986146641122	0	0
-115.27290860883407	85.38090533176296	0	0
-69.663986146641136	99.555989423712205	0	0
-85.380905331762989	115.27290860883406	0	0
-124.23086106442742	71.724721077206141	0	0
-105.22998383056171	60.754559491394758	0	0
-92.312368061352501	24.735024473443975	0	0
-95.528744539246333	2.7665320442565715	0	0
-84.113585584749572	45.368485238913294	0	0
-97.460596191824465	3.2841701344616148	0	0
-86.045437237327704	45.886123329118334	0	0
-99.454649056621207	4.7663277594109665	0	0
-88.513416487205504	45.599563605897757	0	0
-121.05000901315023	10.552787020022329	0	0
-142.51971988925371	16.305578711003946	0	0
-110.10877644373453	51.386022866509123	0	0
-131.57848731983799	57.138814557490733	0	0
-143.44944215441234	1.4210854715202004e-014	0	0
-121.50911898278952	1.0658141036401503e-014	0	0
-92.312368061352487	-24.735024473443978	0	0
-84.113585584749572	-45.368485238913294	0	0
-95.528744539246333	-2.7665320442565786	0	0
-86.045437237327718	-45.886123329118341	0	0
-97.460596191824479	-3.2841701344616148	0	0
-88.513416487205504	-45.599563605897771	0	0
-99.454649056621221	-4.7663277594109843	0	0
-110.10877644373451	-51.38602286650913	0	0
-131.57848731983799	-57.13881455749074	0	0
-121.05000901315024	-10.552787020022336	0	0
-142.51971988925371	-16.305578711003953	0	0
-124.2308610644274	-71.724721077206198	0	0
-105.22998383056169	-60.754559491394787	0	0
-67.577343587908558	-67.577343587908501	0	0
-50.160259300333081	-81.347053540492993	0	0
-81.347053540493036	-50.160259300333003	0	0
-51.574472862706187	-82.761267102866086	0	0
-82.761267102866128	-51.574472862706102	0	0
-53.8550854507235	-83.747088727794505	0	0
-83.747088727794562	-53.855085450723436	0	0
-69.663986146641179	-99.555989423712205	0	0
-85.380905331763017	-115.27290860883402	0	0
-99.555989423712248	-69.663986146641079	0	0
-115.27290860883409	-85.380905331762932	0	0
-71.724721077206226	-124.23086106442737	0	0
-60.754559491394815	-105.22998383056165	0	0
-24.735024473443982	-92.312368061352501	0	0
-2.7665320442565751	-95.528744539246333	0	0
-45.368485238913301	-84.113585584749572	0	0
-3.2841701344616183	-97.460596191824465	0	0
-45.886123329118348	-86.045437237327704	0	0
-4.7663277594109736	-99.454649056621207	0	0
-45.599563605897764	-88.513416487205504	0	0
-10.552787020022336	-121.05000901315023	0	0
-16.305578711003953	-142.51971988925371	0	0
-51.386022866509123	-110.10877644373453	0	0
-57.138814557490747	-131.57848731983799	0	0
-2.8421709430404007e-014	-143.44944215441234	0	0
-1.7763568394002505e-014	-121.50911898278952	0	0
24.735024473443978	-92.312368061352487	0	0
45.368485238913294	-84.113585584749572	0	0
2.7665320442565786	-95.528744539246333	0	0
45.886123329118341	-86.045437237327718	0	0
3.2841701344616148	-97.460596191824479	0	0
45.599563605897771	-88.513416487205504	0	0
4.7663277594109843	-99.454649056621221	0	0
51.38602286650913	-110.10877644373451	0	0
57.13881455749074	-131.57848731983799	0	0
10.552787020022336	-121.05000901315024	0	0
16.305578711003953	-142.51971988925371	0	0
71.724721077206198	-124.2308610644274	0	0
60.754559491394787	-105.22998383056169	0	0
67.577343587908501	-67.577343587908558	0	0
81.347053540492993	-50.160259300333081	0	0
50.160259300333003	-81.347053540493036	0	0
82.761267102866086	-51.574472862706187	0	0
51.574472862706102	-82.761267102866128	0	0
83.747088727794505	-53.8550854507235	0	0
53.855085450723436	-83.747088727794562	0	0
99.555989423712205	-69.663986146641179	0	0
115.27290860883402	-85.380905331763017	0	0
69.663986146641079	-99.555989423712248	0	0
85.380905331762932	-115.27290860883409	0	0
173.8666487320323	-46.58742811845373	0	0
-173.8666487320323	46.587428118453751	0	0
-55.305380369369033	-69.350753442538263	0	10
9.9315785443328934	-88.145197534897321	0	10
-88.145197534897321	-9.9315785443329077	0	10
-57.277719227856508	-71.82398814351248	0	10
10.285765391223414	-91.288692745056267	0	10
-91.288692745056267	-10.285765391223439	0	10
69.350753442538263	-55.305380369369033	0	10
88.145197534897349	9.9315785443328828	0	10
71.823988143512452	-57.277719227856494	0	10
91.288692745056267	10.285765391223414	0	10
55.305380369369033	69.350753442538263	0	10
-9.9315785443328828	88.145197534897349	0	10
57.277719227856494	71.823988143512452	0	10
-10.285765391223396	91.288692745056267	0	10
-69.35075344253822	55.305380369369033	0	10
-71.823988143512466	57.277719227856515	0	10
0	270	0	0
0	-270	0	0
0	-273.85714285714289	0	0
0	273.85714285714289	0	0
0	-277.71428571428572	0	0
0	277.71428571428572	0	0
0	-281.57142857142861	0	0
0	281.57142857142861	0	0
0	-285.42857142857144	0	0
0	285.42857142857144	0	0
0	-289.28571428571428	0	0
0	289.28571428571428	0	0
0	-293.14285714285717	0	0
0	293.14285714285717	0	0
0	-297.00000000000006	0	0
0	297.00000000000006	0	0
[NumSegments] = 100
1	3	-1	0	0	0
2	4	-1	0	0	0
3	5	-1	0	0	0
4	6	-1	0	0	0
5	7	-1	0	0	0
7	8	-1	0	0	0
6	9	-1	0	0	0
9	10	-1	0	0	0
16	18	-1	0	0	0
17	19	-1	0	0	0
18	20	-1	0	0	0
19	21	-1	0	0	0
20	22	-1	0	0	0
22	23	-1	0	0	0
21	24	-1	0	0	0
24	25	-1	0	0	0
29	31	-1	0	0	0
30	32	-1	0	0	0
31	33	-1	0	0	0
32	34	-1	0	0	0
33	35	-1	0	0	0
35	36	-1	0	0	0
34	37	-1	0	0	0
37	38	-1	0	0	0
42	44	-1	0	0	0
43	45	-1	0	0	0
44	46	-1	0	0	0
45	47	-1	0	0	0
46	48	-1	0	0	0
48	49	-1	0	0	0
47	50	-1	0	0	0
50	51	-1	0	0	0
55	57	-1	0	0	0
56	58	-1	0	0	0
57	59	-1	0	0	0
58	60	-1	0	0	0
59	61	-1	0	0	0
61	62	-1	0	0	0
60	63	-1	0	0	0
63	64	-1	0	0	0
68	70	-1	0	0	0
69	71	-1	0	0	0
70	72	-1	0	0	0
71	73	-1	0	0	0
72	74	-1	0	0	0
74	75	-1	0	0	0
73	76	-1	0	0	0
76	77	-1	0	0	0
81	83	-1	0	0	0
82	84	-1	0	0	0
83	85	-1	0	0	0
84	86	-1	0	0	0
85	87	-1	0	0	0
87	88	-1	0	0	0
86	89	-1	0	0	0
89	90	-1	0	0	0
94	96	-1	0	0	0
95	97	-1	0	0	0
96	98	-1	0	0	0
97	99	-1	0	0	0
98	100	-1	0	0	0
100	101	-1	0	0	0
99	102	-1	0	0	0
102	103	-1	0	0	0
107	109	-1	0	0	0
108	110	-1	0	0	0
109	111	-1	0	0	0
110	112	-1	0	0	0
111	113	-1	0	0	0
113	114	-1	0	0	0
112	115	-1	0	0	0
115	116	-1	0	0	0
120	122	-1	0	0	0
121	123	-1	0	0	0
122	124	-1	0	0	0
123	125	-1	0	0	0
124	126	-1	0	0	0
126	127	-1	0	0	0
125	128	-1	0	0	0
128	129	-1	0	0	0
133	135	-1	0	0	0
134	136	-1	0	0	0
135	137	-1	0	0	0
136	138	-1	0	0	0
137	139	-1	0	0	0
139	140	-1	0	0	0
138	141	-1	0	0	0
141	142	-1	0	0	0
146	148	-1	0	0	0
147	149	-1	0	0	0
148	150	-1	0	0	0
149	151	-1	0	0	0
150	152	-1	0	0	0
152	153	-1	0	0	0
151	154	-1	0	0	0
154	155	-1	0	0	0
159	162	-1	0	0	10
160	163	-1	0	0	10
165	167	-1	0	0	10
169	171	-1	0	0	10
[NumArcSegments] = 118
0	1	13.341166115650328	1	0	0	0	1
2	0	13.341166115650328	1	0	0	0	1
8	11	6.7900379773324318	1	0	0	0	1
12	10	6.7900379773324318	1	0	0	0	1
7	13	6.7900379773324318	1	0	0	0	1
14	9	6.7900379773324318	1	0	0	0	1
15	16	13.341166115650328	1	0	0	0	1
17	15	13.341166115650328	1	0	0	0	1
23	26	6.7900379773324318	1	0	0	0	1
11	25	6.7900379773324318	1	0	0	0	1
22	27	6.7900379773324318	1	0	0	0	1
13	24	6.7900379773324318	1	0	0	0	1
28	29	13.341166115650328	1	0	0	0	1
30	28	13.341166115650328	1	0	0	0	1
36	39	6.7900379773324318	1	0	0	0	1
26	38	6.7900379773324318	1	0	0	0	1
35	40	6.7900379773324318	1	0	0	0	1
27	37	6.7900379773324318	1	0	0	0	1
41	42	13.341166115650328	1	0	0	0	1
43	41	13.341166115650328	1	0	0	0	1
49	52	6.7900379773324318	1	0	0	0	1
39	51	6.7900379773324318	1	0	0	0	1
48	53	6.7900379773324318	1	0	0	0	1
40	50	6.7900379773324318	1	0	0	0	1
54	55	13.341166115650328	1	0	0	0	1
56	54	13.341166115650328	1	0	0	0	1
62	65	6.7900379773324318	1	0	0	0	1
52	64	6.7900379773324318	1	0	0	0	1
61	66	6.7900379773324318	1	0	0	0	1
53	63	6.7900379773324318	1	0	0	0	1
67	68	13.341166115650328	1	0	0	0	1
69	67	13.341166115650328	1	0	0	0	1
75	78	6.7900379773324318	1	0	0	0	1
65	77	6.7900379773324318	1	0	0	0	1
74	79	6.7900379773324318	1	0	0	0	1
66	76	6.7900379773324318	1	0	0	0	1
80	81	13.341166115650328	1	0	0	0	1
82	80	13.341166115650328	1	0	0	0	1
88	91	6.7900379773324318	1	0	0	0	1
78	90	6.7900379773324318	1	0	0	0	1
87	92	6.7900379773324318	1	0	0	0	1
79	89	6.7900379773324318	1	0	0	0	1
93	94	13.341166115650328	1	0	0	0	1
95	93	13.341166115650328	1	0	0	0	1
101	104	6.7900379773324318	1	0	0	0	1
91	103	6.7900379773324318	1	0	0	0	1
100	105	6.7900379773324318	1	0	0	0	1
92	102	6.7900379773324318	1	0	0	0	1
106	107	13.341166115650328	1	0	0	0	1
108	106	13.341166115650328	1	0	0	0	1
114	117	6.7900379773324318	1	0	0	0	1
104	116	6.7900379773324318	1	0	0	0	1
113	118	6.7900379773324318	1	0	0	0	1
105	115	6.7900379773324318	1	0	0	0	1
119	120	13.341166115650328	1	0	0	0	1
121	119	13.341166115650328	1	0	0	0	1
127	130	6.7900379773324318	1	0	0	0	1
117	129	6.7900379773324318	1	0	0	0	1
126	131	6.7900379773324318	1	0	0	0	1
118	128	6.7900379773324318	1	0	0	0	1
132	133	13.341166115650328	1	0	0	0	1
134	132	13.341166115650328	1	0	0	0	1
140	143	6.7900379773324318	1	0	0	0	1
130	142	6.7900379773324318	1	0	0	0	1
139	144	6.7900379773324318	1	0	0	0	1
131	141	6.7900379773324318	1	0	0	0	1
145	146	13.341166115650328	1	0	0	0	1
147	145	13.341166115650328	1	0	0	0	1
153	12	6.7900379773324318	1	0	0	0	1
143	155	6.7900379773324318	1	0	0	0	1
152	14	6.7900379773324318	1	0	0	0	1
144	154	6.7900379773324318	1	0	0	0	1
156	157	180	1	0	0	0	1
157	156	180	1	0	0	0	1
1	17	3.3176677686993394	1	0	0	0	1
16	30	3.3176677686993488	1	0	0	0	1
29	43	3.317667768699351	1	0	0	0	1
42	56	3.3176677686993381	1	0	0	0	1
55	69	3.3176677686993741	1	0	0	0	1
68	82	3.3176677686993341	1	0	0	0	1
81	95	3.3176677686993554	1	0	0	0	1
94	108	3.3176677686993084	1	0	0	0	1
107	121	3.3176677686993687	1	0	0	0	1
120	134	3.3176677686993634	1	0	0	0	1
133	147	3.3176677686993084	1	0	0	0	1
146	2	3.3176677686993741	1	0	0	0	1
158	159	45	1	0	0	10	1
160	158	45	1	0	0	10	1
161	162	45	1	0	0	10	1
163	161	45	1	0	0	10	1
164	165	45	1	0	0	10	1
159	164	45	1	0	0	10	1
166	167	45	1	0	0	10	1
162	166	45	1	0	0	10	1
168	169	45	1	0	0	10	1
165	168	45	1	0	0	10	1
170	171	45	1	0	0	10	1
167	170	45	1	0	0	10	1
172	160	45	1	0	0	10	1
169	172	45	1	0	0	10	1
173	163	45	1	0	0	10	1
171	173	45	1	0	0	10	1
174	175	180	1	0	0	0	1
175	174	180	1	0	0	0	1
176	177	180	1	0	0	0	1
177	176	180	1	0	0	0	1
178	179	180	1	0	0	0	1
179	178	180	1	0	0	0	1
180	181	180	1	0	0	0	1
181	180	180	1	0	0	0	1
182	183	180	1	0	0	0	1
183	182	180	1	0	0	0	1
184	185	180	1	0	0	0	1
185	184	180	1	0	0	0	1
186	187	180	1	0	0	0	1
187	186	180	1	0	0	0	1
188	189	180	1	0	0	0	1
189	188	180	1	0	0	0	1
[NumHoles] = 0
[NumBlockLabels] = 39
110.53895739697813	-3.5527136788005009e-015	2	-1	1	0	2	-228	0
95.729545213628853	55.269478698489067	2	-1	3	0	2	228	0
55.269478698489067	95.729545213628853	2	-1	2	0	2	-228	0
1.4210854715202004e-014	110.53895739697813	2	-1	1	0	2	228	0
-55.269478698489067	95.729545213628853	2	-1	3	0	2	-228	0
-95.729545213628825	55.269478698489095	2	-1	2	0	2	228	0
-110.53895739697813	4.6185277824406512e-014	2	-1	1	0	2	-228	0
-95.729545213628882	-55.269478698489024	2	-1	3	0	2	228	0
-55.269478698489053	-95.729545213628853	2	-1	2	0	2	-228	0
4.2632564145606011e-014	-110.53895739697813	2	-1	1	0	2	228	0
55.26947869848906	-95.729545213628867	2	-1	3	0	2	-228	0
95.729545213628853	-55.26947869848906	2	-1	2	0	2	228	0
132.47928056860093	0	2	-1	1	0	2	-228	0
114.73042244749456	66.239640284300449	2	-1	3	0	2	228	0
66.239640284300464	114.73042244749456	2	-1	2	0	2	-228	0
1.4210854715202004e-014	132.47928056860093	2	-1	1	0	2	228	0
-66.239640284300449	114.73042244749456	2	-1	3	0	2	-228	0
-114.73042244749453	66.239640284300492	2	-1	2	0	2	228	0
-132.47928056860093	4.9737991503207013e-014	2	-1	1	0	2	-228	0
-114.73042244749459	-66.239640284300407	2	-1	3	0	2	228	0
-66.239640284300449	-114.73042244749456	2	-1	2	0	2	-228	0
5.6843418860808015e-014	-132.47928056860093	2	-1	1	0	2	228	0
66.239640284300435	-114.73042244749456	2	-1	3	0	2	-228	0
114.73042244749456	-66.239640284300464	2	-1	2	0	2	228	0
156.21408483786948	-41.857437878674013	4	-1	0	0	1	1	0
-56.291549798612785	-70.5873707930254	3	-1	0	231.42857142857147	11	1	0
70.587370793025372	-56.291549798612778	3	-1	0	501.4285714285715	12	1	0
56.291549798612778	70.587370793025372	3	-1	0	411.4285714285715	13	1	0
-70.5873707930254	56.291549798612785	3	-1	0	681.4285714285711	14	1	0
-27.652690184684516	-34.675376721269132	4	-1	0	0	10	1	0
93.717562375235858	0	1	-1	0	0	0	1	0
180.5	0	1	-1	0	0	0	1	0
266.70354017822132	53.050632565385733	5	-1	0	0	0	1	0
254.792776787577	105.53862374011511	6	-1	0	0	0	1	0
232.5145380117475	155.36124730512449	7	-1	0	0	0	1	0
200.46477246638625	200.46477246638619	8	-1	0	0	0	1	0
159.64707481699	238.92873216379564	9	-1	0	0	0	1	0
111.4428824108908	269.04691814632258	10	-1	0	0	0	1	0
57.565580017758954	289.4017138104104	11	-1	0	0	0	1	0
