[Format]      =  4.0
[Frequency]   =  0
[Precision]   =  1e-008
[MinAngle]    =  30
[DoSmartMesh] =  1
[Depth]       =  1
[LengthUnits] =  millimeters
[ProblemType] =  planar
[Coordinates] =  cartesian
[ACSolver]    =  0
[PrevType]    =  0
[PrevSoln]    =  ""
[Comment]     =  "Add comments here."
[PointProps]   = 0
[BdryProps]   = 0
[BlockProps]  = 11
  <BeginBlock>
    <BlockName> = "Air"
    <Mu_x> = 1
    <Mu_y> = 1
    <H_c> = 0
    <H_cAngle> = 0
    <J_re> = 0
    <J_im> = 0
    <Sigma> = 0
    <d_lam> = 0
    <Phi_h> = 0
    <Phi_hx> = 0
    <Phi_hy> = 0
    <LamType> = 0
    <LamFill> = 1
    <NStrands> = 0
    <WireD> = 0
    <BHPoints> = 0
  <EndBlock>
  <BeginBlock>
    <BlockName> = "18 AWG"
    <Mu_x> = 1
    <Mu_y> = 1
    <H_c> = 0
    <H_cAngle> = 0
    <J_re> = 0
    <J_im> = 0
    <Sigma> = 58
    <d_lam> = 0
    <Phi_h> = 0
    <Phi_hx> = 0
    <Phi_hy> = 0
    <LamType> = 3
    <LamFill> = 1
    <NStrands> = 1
    <WireD> = 1.0239652968433499
    <BHPoints> = 0
  <EndBlock>
  <BeginBlock>
    <BlockName> = "N40"
    <Mu_x> = 1.044
    <Mu_y> = 1.044
    <H_c> = 963000
    <H_cAngle> = 0
    <J_re> = 0
    <J_im> = 0
    <Sigma> = 555000
    <d_lam> = 0
    <Phi_h> = 0
    <Phi_hx> = 0
    <Phi_hy> = 0
    <LamType> = 0
    <LamFill> = 1
    <NStrands> = 0
    <WireD> = 0
    <BHPoints> = 0
  <EndBlock>
  <BeginBlock>
    <BlockName> = "M19_29Ga"
    <Mu_x> = 0
    <Mu_y> = 0
    <H_c> = 0
    <H_cAngle> = 0
    <J_re> = 0
    <J_im> = 0
    <Sigma> = 0
    <d_lam> = 0.35999999999999999
    <Phi_h> = 0
    <Phi_hx> = 0
    <Phi_hy> = 0
    <LamType> = 0
    <LamFill> = 0.91000000000000003
    <NStrands> = 0
    <WireD> = 0
    <BHPoints> = 187
      0	0
      0.51870000000000005	49
      0.66139999999999999	63
      0.72040000000000004	69
      0.76580000000000004	74
      0.80400000000000005	78
      0.83760000000000001	82
      0.86809999999999998	86
      0.89610000000000001	90
      0.92210000000000003	94
      0.9466	98
      0.96970000000000001	102
      0.99170000000000003	106
      1.0127999999999999	110
      1.0328999999999999	114
      1.0524	119
      1.0710999999999999	124
      1.0891999999999999	128
      1.1068	134
      1.1237999999999999	139
      1.1404000000000001	145
      1.1565000000000001	151
      1.1722999999999999	157
      1.1877	164
      1.2027000000000001	172
      1.2174	180
      1.2318	189
      1.2459	199
      1.2598	209
      1.2734000000000001	221
      1.2867	234
      1.2999000000000001	248
      1.3128	264
      1.3254999999999999	282
      1.3380000000000001	302
      1.3503000000000001	324
      1.3625	349
      1.3744000000000001	377
      1.3862000000000001	409
      1.3978999999999999	446
      1.4094	486
      1.4207000000000001	532
      1.4319	584
      1.4430000000000001	641
      1.4539	705
      1.4646999999999999	776
      1.4754	855
      1.486	942
      1.4964999999999999	1037
      1.5067999999999999	1141
      1.5169999999999999	1256
      1.5271999999999999	1380
      1.5371999999999999	1515
      1.5471999999999999	1661
      1.5569999999999999	1818
      1.5667	1987
      1.5764	2167
      1.5860000000000001	2357
      1.5954999999999999	2558
      1.6049	2769
      1.6142000000000001	2990
      1.6234	3220
      1.6326000000000001	3459
      1.6416999999999999	3706
      1.6507000000000001	3961
      1.6597	4224
      1.6685000000000001	4495
      1.6773	4773
      1.6860999999999999	5058
      1.6948000000000001	5352
      1.7034	5653
      1.7119	5962
      1.7203999999999999	6280
      1.7289000000000001	6606
      1.7372000000000001	6942
      1.7456	7286
      1.7538	7641
      1.762	8007
      1.7702	8384
      1.7783	8773
      1.7863	9175
      1.7943	9590
      1.8023	10020
      1.8102	10466
      1.8180000000000001	10929
      1.8258000000000001	11409
      1.8335999999999999	11909
      1.8412999999999999	12430
      1.849	12972
      1.8566	13539
      1.8642000000000001	14132
      1.8716999999999999	14752
      1.8792	15402
      1.8867	16085
      1.8940999999999999	16802
      1.9014	17557
      1.9088000000000001	18353
      1.9160999999999999	19192
      1.9233	20078
      1.9306000000000001	21016
      1.9377	22008
      1.9449000000000001	23059
      1.952	24174
      1.9591000000000001	25357
      1.9661	26614
      1.9731000000000001	27948
      1.9801	29367
      1.9870000000000001	30873
      1.994	32474
      2.0007999999999999	34174
      2.0076999999999998	35978
      2.0145	37891
      2.0213000000000001	39915
      2.028	42056
      2.0348000000000002	44315
      2.0413999999999999	46694
      2.0480999999999998	49194
      2.0547	51814
      2.0613999999999999	54555
      2.0678999999999998	57412
      2.0745	60385
      2.081	63468
      2.0874999999999999	66657
      2.0939999999999999	69947
      2.1004	73333
      2.1067999999999998	76809
      2.1132	80369
      2.1196000000000002	84007
      2.1259000000000001	87716
      2.1322000000000001	91492
      2.1385000000000001	95328
      2.1448	99220
      2.1509999999999998	103162
      2.1573000000000002	107149
      2.1634000000000002	111177
      2.1696	115242
      2.1758000000000002	119339
      2.1819000000000002	123466
      2.1880000000000002	127619
      2.1941000000000002	131794
      2.2000999999999999	135990
      2.2061999999999999	140203
      2.2122000000000002	144432
      2.2181999999999999	148673
      2.2242000000000002	152926
      2.2301000000000002	157188
      2.2360000000000002	161458
      2.242	165734
      2.2477999999999998	170015
      2.2536999999999998	174300
      2.2595999999999998	178587
      2.2654000000000001	182876
      2.2711999999999999	187166
      2.2770000000000001	191455
      2.2827999999999999	195743
      2.2885	200030
      2.2942999999999998	204314
      2.2999999999999998	208595
      2.3056999999999999	212872
      2.3113999999999999	217146
      2.3170000000000002	221415
      2.3227000000000002	225679
      2.3283	229938
      2.3338999999999999	234191
      2.3395000000000001	238438
      2.3451	242679
      2.3506999999999998	246914
      2.3561999999999999	251142
      2.3616999999999999	255362
      2.3672	259576
      2.3727	263783
      2.3782000000000001	267982
      2.3837000000000002	272173
      2.3891	276357
      2.3944999999999999	280533
      2.3999999999999999	284701
      2.4053	288860
      2.4106999999999998	293012
      2.4161000000000001	297155
      2.4215	301290
      2.4268000000000001	305417
      2.4321000000000002	309536
      2.4373999999999998	313646
      2.4426999999999999	317747
      2.448	321840
      2.4533	325924
      2.4584999999999999	330000
  <EndBlock>
  <BeginBlock>
    <BlockName> = "u1"
    <Mu_x> = 0.37737277525645235
    <Mu_y> = 0.37737277525645235
    <H_c> = 0
    <H_cAngle> = 0
    <J_re> = 0
    <J_im> = 0
    <Sigma> = 0
    <d_lam> = 0
    <Phi_h> = 0
    <Phi_hx> = 0
    <Phi_hy> = 0
    <LamType> = 0
    <LamFill> = 1
    <NStrands> = 0
    <WireD> = 0
    <BHPoints> = 0
  <EndBlock>
  <BeginBlock>
    <BlockName> = "u2"
    <Mu_x> = 7.7200304346442108
    <Mu_y> = 7.7200304346442108
    <H_c> = 0
    <H_cAngle> = 0
    <J_re> = 0
    <J_im> = 0
    <Sigma> = 0
    <d_lam> = 0
    <Phi_h> = 0
    <Phi_hx> = 0
    <Phi_hy> = 0
    <LamType> = 0
    <LamFill> = 1
    <NStrands> = 0
    <WireD> = 0
    <BHPoints> = 0
  <EndBlock>
  <BeginBlock>
    <BlockName> = "u3"
    <Mu_x> = 0.069449425895143593
    <Mu_y> = 0.069449425895143593
    <H_c> = 0
    <H_cAngle> = 0
    <J_re> = 0
    <J_im> = 0
    <Sigma> = 0
    <d_lam> = 0
    <Phi_h> = 0
    <Phi_hx> = 0
    <Phi_hy> = 0
    <LamType> = 0
    <LamFill> = 1
    <NStrands> = 0
    <WireD> = 0
    <BHPoints> = 0
  <EndBlock>
  <BeginBlock>
    <BlockName> = "u4"
    <Mu_x> = 23.31949550539958
    <Mu_y> = 23.31949550539958
    <H_c> = 0
    <H_cAngle> = 0
    <J_re> = 0
    <J_im> = 0
    <Sigma> = 0
    <d_lam> = 0
    <Phi_h> = 0
    <Phi_hx> = 0
    <Phi_hy> = 0
    <LamType> = 0
    <LamFill> = 1
    <NStrands> = 0
    <WireD> = 0
    <BHPoints> = 0
  <EndBlock>
  <BeginBlock>
    <BlockName> = "u5"
    <Mu_x> = 0.026883543752277105
    <Mu_y> = 0.026883543752277105
    <H_c> = 0
    <H_cAngle> = 0
    <J_re> = 0
    <J_im> = 0
    <Sigma> = 0
    <d_lam> = 0
    <Phi_h> = 0
    <Phi_hx> = 0
    <Phi_hy> = 0
    <LamType> = 0
    <LamFill> = 1
    <NStrands> = 0
    <WireD> = 0
    <BHPoints> = 0
  <EndBlock>
  <BeginBlock>
    <BlockName> = "u6"
    <Mu_x> = 63.839650875508823
    <Mu_y> = 63.839650875508823
    <H_c> = 0
    <H_cAngle> = 0
    <J_re> = 0
    <J_im> = 0
    <Sigma> = 0
    <d_lam> = 0
    <Phi_h> = 0
    <Phi_hx> = 0
    <Phi_hy> = 0
    <LamType> = 0
    <LamFill> = 1
    <NStrands> = 0
    <WireD> = 0
    <BHPoints> = 0
  <EndBlock>
  <BeginBlock>
    <BlockName> = "u7"
    <Mu_x> = 0.0070407582729502555
    <Mu_y> = 0.0070407582729502555
    <H_c> = 0
    <H_cAngle> = 0
    <J_re> = 0
    <J_im> = 0
    <Sigma> = 0
    <d_lam> = 0
    <Phi_h> = 0
    <Phi_hx> = 0
    <Phi_hy> = 0
    <LamType> = 0
    <LamFill> = 1
    <NStrands> = 0
    <WireD> = 0
    <BHPoints> = 0
  <EndBlock>
[CircuitProps]  = 3
  <BeginCircuit>
    <CircuitName> = "U"
    <TotalAmps_re> = 3.6287736158580421
    <TotalAmps_im> = 0
    <CircuitType> = 1
  <EndCircuit>
  <BeginCircuit>
    <CircuitName> = "V"
    <TotalAmps_re> = 2.1263216592461656
    <TotalAmps_im> = 0
    <CircuitType> = 1
  <EndCircuit>
  <BeginCircuit>
    <CircuitName> = "W"
    <TotalAmps_re> = -5.755095275104205
    <TotalAmps_im> = -0
    <CircuitType> = 1
  <EndCircuit>
[NumPoints] = 190
101.71385638429831	-27.254145677227921	0	0
105.22251723669997	-4.0888755830423165	0	0
93.169810768649299	-49.070188490521424	0	0
107.1543688892781	-4.6065136732473562	0	0
95.101662421227431	-49.587826580726464	0	0
109.03788920481288	-7.5928398362338569	0	0
98.226001944517904	-47.943352417361439	0	0
121.82990870539668	-11.020451130978461	0	0
134.58059709013085	-14.436987786608871	0	0
111.0180214451017	-51.370963712106047	0	0
123.76870982983586	-54.787500367736456	0	0
135.35273816767366	0	0	0
117.21890972498899	-67.676369083836832	0	0
122.32733544999488	3.5527136788005009e-015	0	0
105.9385800769563	-61.163667724997438	0	0
101.71385638429831	27.254145677227921	0	0
93.169810768649313	49.070188490521424	0	0
105.22251723669997	4.0888755830423129	0	0
95.101662421227445	49.587826580726464	0	0
107.1543688892781	4.6065136732473562	0	0
98.22600194451789	47.943352417361432	0	0
109.03788920481288	7.5928398362338605	0	0
111.0180214451017	51.370963712106033	0	0
123.76870982983584	54.787500367736428	0	0
121.82990870539669	11.020451130978465	0	0
134.58059709013082	14.436987786608867	0	0
117.21890972498899	67.676369083836818	0	0
105.9385800769563	61.163667724997438	0	0
74.4597107070704	74.459710707070371	0	0
56.152328746178554	89.080935185606975	0	0
89.08093518560699	56.15232874617854	0	0
57.566542308551647	90.495148747980082	0	0
90.495148747980096	57.566542308551647	0	0
61.094536787451446	90.633162108284012	0	0
90.63316210828404	61.094536787451432	0	0
70.458944993290643	99.997570314123223	0	0
79.793096722394381	109.33172204322696	0	0
99.997570314123237	70.458944993290629	0	0
109.33172204322696	79.793096722394381	0	0
67.676369083836846	117.21890972498899	0	0
61.163667724997453	105.93858007695628	0	0
27.254145677227928	101.71385638429831	0	0
4.0888755830423236	105.22251723669996	0	0
49.070188490521431	93.169810768649299	0	0
4.6065136732473633	107.15436888927809	0	0
49.587826580726471	95.101662421227431	0	0
7.592839836233864	109.03788920481288	0	0
47.943352417361446	98.22600194451789	0	0
11.020451130978469	121.82990870539668	0	0
14.436987786608878	134.58059709013085	0	0
51.370963712106047	111.01802144510168	0	0
54.787500367736456	123.76870982983584	0	0
7.1054273576010019e-015	135.35273816767366	0	0
3.5527136788005009e-015	122.32733544999488	0	0
-27.254145677227907	101.71385638429831	0	0
-49.07018849052141	93.169810768649313	0	0
-4.0888755830422987	105.22251723669997	0	0
-49.58782658072645	95.101662421227445	0	0
-4.606513673247342	107.1543688892781	0	0
-47.943352417361417	98.22600194451789	0	0
-7.5928398362338463	109.03788920481287	0	0
-51.370963712106018	111.01802144510168	0	0
-54.787500367736413	123.76870982983584	0	0
-11.020451130978437	121.82990870539669	0	0
-14.436987786608853	134.58059709013082	0	0
-67.676369083836818	117.21890972498899	0	0
-61.163667724997403	105.9385800769563	0	0
-74.4597107070704	74.459710707070371	0	0
-89.080935185607004	56.152328746178526	0	0
-56.152328746178561	89.08093518560699	0	0
-90.495148747980082	57.566542308551625	0	0
-57.566542308551647	90.495148747980068	0	0
-90.633162108284026	61.094536787451432	0	0
-61.09453678745146	90.633162108284012	0	0
-99.997570314123237	70.458944993290629	0	0
-109.33172204322697	79.793096722394367	0	0
-70.458944993290643	99.997570314123209	0	0
-79.793096722394409	109.33172204322695	0	0
-117.218909724989	67.676369083836818	0	0
-105.93858007695631	61.163667724997431	0	0
-101.71385638429831	27.254145677227935	0	0
-105.22251723669996	4.0888755830423307	0	0
-93.169810768649299	49.070188490521431	0	0
-107.15436888927809	4.6065136732473704	0	0
-95.101662421227431	49.587826580726471	0	0
-109.03788920481288	7.5928398362338712	0	0
-98.22600194451789	47.943352417361453	0	0
-121.82990870539668	11.020451130978476	0	0
-134.58059709013082	14.436987786608888	0	0
-111.01802144510168	51.370963712106061	0	0
-123.76870982983584	54.78750036773647	0	0
-135.35273816767366	1.4210854715202004e-014	0	0
-122.32733544999488	1.0658141036401503e-014	0	0
-101.71385638429831	-27.254145677227946	0	0
-93.169810768649313	-49.070188490521446	0	0
-105.22251723669997	-4.0888755830423413	0	0
-95.101662421227445	-49.587826580726478	0	0
-107.1543688892781	-4.606513673247381	0	0
-98.22600194451789	-47.943352417361467	0	0
-109.03788920481287	-7.5928398362338783	0	0
-111.01802144510168	-51.370963712106061	0	0
-123.76870982983584	-54.787500367736463	0	0
-121.82990870539668	-11.020451130978483	0	0
-134.58059709013082	-14.436987786608903	0	0
-117.21890972498898	-67.67636908383686	0	0
-105.93858007695628	-61.163667724997453	0	0
-74.459710707070428	-74.459710707070357	0	0
-56.152328746178583	-89.080935185606961	0	0
-89.080935185607018	-56.152328746178497	0	0
-57.566542308551689	-90.495148747980053	0	0
-90.49514874798011	-57.56654230855159	0	0
-61.094536787451489	-90.633162108283997	0	0
-90.633162108284068	-61.094536787451396	0	0
-70.458944993290686	-99.997570314123195	0	0
-79.793096722394424	-109.33172204322693	0	0
-99.997570314123266	-70.458944993290572	0	0
-109.331722043227	-79.793096722394324	0	0
-67.676369083836889	-117.21890972498895	0	0
-61.163667724997488	-105.93858007695627	0	0
-27.254145677227939	-101.71385638429831	0	0
-4.0888755830423342	-105.22251723669996	0	0
-49.070188490521438	-93.169810768649299	0	0
-4.6065136732473739	-107.15436888927809	0	0
-49.587826580726478	-95.101662421227431	0	0
-7.5928398362338783	-109.03788920481288	0	0
-47.94335241736146	-98.22600194451789	0	0
-11.020451130978483	-121.82990870539668	0	0
-14.436987786608896	-134.58059709013082	0	0
-51.370963712106061	-111.01802144510168	0	0
-54.787500367736477	-123.76870982983584	0	0
-2.1316282072803006e-014	-135.35273816767366	0	0
-1.7763568394002505e-014	-122.32733544999488	0	0
27.254145677227946	-101.71385638429831	0	0
49.070188490521446	-93.169810768649313	0	0
4.0888755830423413	-105.22251723669997	0	0
49.587826580726478	-95.101662421227445	0	0
4.606513673247381	-107.1543688892781	0	0
47.943352417361467	-98.22600194451789	0	0
7.5928398362338783	-109.03788920481287	0	0
51.370963712106061	-111.01802144510168	0	0
54.787500367736463	-123.76870982983584	0	0
11.020451130978483	-121.82990870539668	0	0
14.436987786608903	-134.58059709013082	0	0
67.67636908383686	-117.21890972498898	0	0
61.163667724997453	-105.93858007695628	0	0
74.459710707070357	-74.459710707070428	0	0
89.080935185606961	-56.152328746178583	0	0
56.152328746178497	-89.080935185607018	0	0
90.495148747980053	-57.566542308551689	0	0
57.56654230855159	-90.49514874798011	0	0
90.633162108283997	-61.094536787451489	0	0
61.094536787451396	-90.633162108284068	0	0
99.997570314123195	-70.458944993290686	0	0
109.33172204322693	-79.793096722394424	0	0
70.458944993290572	-99.997570314123266	0	0
79.793096722394324	-109.331722043227	0	0
173.8666487320323	-46.58742811845373	0	0
-173.8666487320323	46.587428118453751	0	0
-88.930007315234306	-42.826434373384693	0	10
-32.600149064110482	-93.165873383032377	0	10
-93.165873383032419	32.600149064110489	0	10
-91.899011652440024	-44.256231505312421	0	10
-33.688532916613724	-96.276295730950011	0	10
-96.276295730950011	33.688532916613724	0	10
42.82643437338465	-88.930007315234292	0	10
93.165873383032377	-32.600149064110482	0	10
44.256231505312421	-91.899011652440024	0	10
96.276295730950011	-33.688532916613724	0	10
88.93000731523432	42.826434373384664	0	10
32.600149064110511	93.165873383032377	0	10
91.899011652440024	44.256231505312421	0	10
33.688532916613752	96.276295730950025	0	10
-42.826434373384657	88.93000731523432	0	10
-44.256231505312421	91.899011652440024	0	10
0	270	0	0
0	-270	0	0
0	-273.85714285714289	0	0
0	273.85714285714289	0	0
0	-277.71428571428572	0	0
0	277.71428571428572	0	0
0	-281.57142857142861	0	0
0	281.57142857142861	0	0
0	-285.42857142857144	0	0
0	285.42857142857144	0	0
0	-289.28571428571428	0	0
0	289.28571428571428	0	0
0	-293.14285714285717	0	0
0	293.14285714285717	0	0
0	-297.00000000000006	0	0
0	297.00000000000006	0	0
[NumSegments] = 100
1	3	-1	0	0	0
2	4	-1	0	0	0
3	5	-1	0	0	0
4	6	-1	0	0	0
5	7	-1	0	0	0
7	8	-1	0	0	0
6	9	-1	0	0	0
9	10	-1	0	0	0
16	18	-1	0	0	0
17	19	-1	0	0	0
18	20	-1	0	0	0
19	21	-1	0	0	0
20	22	-1	0	0	0
22	23	-1	0	0	0
21	24	-1	0	0	0
24	25	-1	0	0	0
29	31	-1	0	0	0
30	32	-1	0	0	0
31	33	-1	0	0	0
32	34	-1	0	0	0
33	35	-1	0	0	0
35	36	-1	0	0	0
34	37	-1	0	0	0
37	38	-1	0	0	0
42	44	-1	0	0	0
43	45	-1	0	0	0
44	46	-1	0	0	0
45	47	-1	0	0	0
46	48	-1	0	0	0
48	49	-1	0	0	0
47	50	-1	0	0	0
50	51	-1	0	0	0
55	57	-1	0	0	0
56	58	-1	0	0	0
57	59	-1	0	0	0
58	60	-1	0	0	0
59	61	-1	0	0	0
61	62	-1	0	0	0
60	63	-1	0	0	0
63	64	-1	0	0	0
68	70	-1	0	0	0
69	71	-1	0	0	0
70	72	-1	0	0	0
71	73	-1	0	0	0
72	74	-1	0	0	0
74	75	-1	0	0	0
73	76	-1	0	0	0
76	77	-1	0	0	0
81	83	-1	0	0	0
82	84	-1	0	0	0
83	85	-1	0	0	0
84	86	-1	0	0	0
85	87	-1	0	0	0
87	88	-1	0	0	0
86	89	-1	0	0	0
89	90	-1	0	0	0
94	96	-1	0	0	0
95	97	-1	0	0	0
96	98	-1	0	0	0
97	99	-1	0	0	0
98	100	-1	0	0	0
100	101	-1	0	0	0
99	102	-1	0	0	0
102	103	-1	0	0	0
107	109	-1	0	0	0
108	110	-1	0	0	0
109	111	-1	0	0	0
110	112	-1	0	0	0
111	113	-1	0	0	0
113	114	-1	0	0	0
112	115	-1	0	0	0
115	116	-1	0	0	0
120	122	-1	0	0	0
121	123	-1	0	0	0
122	124	-1	0	0	0
123	125	-1	0	0	0
124	126	-1	0	0	0
126	127	-1	0	0	0
125	128	-1	0	0	0
128	129	-1	0	0	0
133	135	-1	0	0	0
134	136	-1	0	0	0
135	137	-1	0	0	0
136	138	-1	0	0	0
137	139	-1	0	0	0
139	140	-1	0	0	0
138	141	-1	0	0	0
141	142	-1	0	0	0
146	148	-1	0	0	0
147	149	-1	0	0	0
148	150	-1	0	0	0
149	151	-1	0	0	0
150	152	-1	0	0	0
152	153	-1	0	0	0
151	154	-1	0	0	0
154	155	-1	0	0	0
159	162	-1	0	0	10
160	163	-1	0	0	10
165	167	-1	0	0	10
169	171	-1	0	0	10
[NumArcSegments] = 118
0	1	12.774644586487879	1	0	0	0	1
2	0	12.774644586487879	1	0	0	0	1
8	11	6.4241006282521402	1	0	0	0	1
12	10	6.4241006282521402	1	0	0	0	1
7	13	6.4241006282521402	1	0	0	0	1
14	9	6.4241006282521402	1	0	0	0	1
15	16	12.774644586487879	1	0	0	0	1
17	15	12.774644586487879	1	0	0	0	1
23	26	6.4241006282521402	1	0	0	0	1
11	25	6.4241006282521402	1	0	0	0	1
22	27	6.4241006282521402	1	0	0	0	1
13	24	6.4241006282521402	1	0	0	0	1
28	29	12.774644586487879	1	0	0	0	1
30	28	12.774644586487879	1	0	0	0	1
36	39	6.4241006282521402	1	0	0	0	1
26	38	6.4241006282521402	1	0	0	0	1
35	40	6.4241006282521402	1	0	0	0	1
27	37	6.4241006282521402	1	0	0	0	1
41	42	12.774644586487879	1	0	0	0	1
43	41	12.774644586487879	1	0	0	0	1
49	52	6.4241006282521402	1	0	0	0	1
39	51	6.4241006282521402	1	0	0	0	1
48	53	6.4241006282521402	1	0	0	0	1
40	50	6.4241006282521402	1	0	0	0	1
54	55	12.774644586487879	1	0	0	0	1
56	54	12.774644586487879	1	0	0	0	1
62	65	6.4241006282521402	1	0	0	0	1
52	64	6.4241006282521402	1	0	0	0	1
61	66	6.4241006282521402	1	0	0	0	1
53	63	6.4241006282521402	1	0	0	0	1
67	68	12.774644586487879	1	0	0	0	1
69	67	12.774644586487879	1	0	0	0	1
75	78	6.4241006282521402	1	0	0	0	1
65	77	6.4241006282521402	1	0	0	0	1
74	79	6.4241006282521402	1	0	0	0	1
66	76	6.4241006282521402	1	0	0	0	1
80	81	12.774644586487879	1	0	0	0	1
82	80	12.774644586487879	1	0	0	0	1
88	91	6.4241006282521402	1	0	0	0	1
78	90	6.4241006282521402	1	0	0	0	1
87	92	6.4241006282521402	1	0	0	0	1
79	89	6.4241006282521402	1	0	0	0	1
93	94	12.774644586487879	1	0	0	0	1
95	93	12.774644586487879	1	0	0	0	1
101	104	6.4241006282521402	1	0	0	0	1
91	103	6.4241006282521402	1	0	0	0	1
100	105	6.4241006282521402	1	0	0	0	1
92	102	6.4241006282521402	1	0	0	0	1
106	107	12.774644586487879	1	0	0	0	1
108	106	12.774644586487879	1	0	0	0	1
114	117	6.4241006282521402	1	0	0	0	1
104	116	6.4241006282521402	1	0	0	0	1
113	118	6.4241006282521402	1	0	0	0	1
105	115	6.4241006282521402	1	0	0	0	1
119	120	12.774644586487879	1	0	0	0	1
121	119	12.774644586487879	1	0	0	0	1
127	130	6.4241006282521402	1	0	0	0	1
117	129	6.4241006282521402	1	0	0	0	1
126	131	6.4241006282521402	1	0	0	0	1
118	128	6.4241006282521402	1	0	0	0	1
132	133	12.774644586487879	1	0	0	0	1
134	132	12.774644586487879	1	0	0	0	1
140	143	6.4241006282521402	1	0	0	0	1
130	142	6.4241006282521402	1	0	0	0	1
139	144	6.4241006282521402	1	0	0	0	1
131	141	6.4241006282521402	1	0	0	0	1
145	146	12.774644586487879	1	0	0	0	1
147	145	12.774644586487879	1	0	0	0	1
153	12	6.4241006282521402	1	0	0	0	1
143	155	6.4241006282521402	1	0	0	0	1
152	14	6.4241006282521402	1	0	0	0	1
144	154	6.4241006282521402	1	0	0	0	1
156	157	180	1	0	0	0	1
157	156	180	1	0	0	0	1
1	17	4.4507108270242375	1	0	0	0	1
16	30	4.4507108270242517	1	0	0	0	1
29	43	4.4507108270242508	1	0	0	0	1
42	56	4.4507108270242348	1	0	0	0	1
55	69	4.450710827024265	1	0	0	0	1
68	82	4.4507108270242322	1	0	0	0	1
81	95	4.4507108270242588	1	0	0	0	1
94	108	4.4507108270242082	1	0	0	0	1
107	121	4.4507108270242659	1	0	0	0	1
120	134	4.4507108270242659	1	0	0	0	1
133	147	4.4507108270242117	1	0	0	0	1
146	2	4.4507108270242774	1	0	0	0	1
158	159	45	1	0	0	10	1
160	158	45	1	0	0	10	1
161	162	45	1	0	0	10	1
163	161	45	1	0	0	10	1
164	165	45	1	0	0	10	1
159	164	45	1	0	0	10	1
166	167	45	1	0	0	10	1
162	166	45	1	0	0	10	1
168	169	45	1	0	0	10	1
165	168	45	1	0	0	10	1
170	171	45	1	0	0	10	1
167	170	45	1	0	0	10	1
172	160	45	1	0	0	10	1
169	172	45	1	0	0	10	1
173	163	45	1	0	0	10	1
171	173	45	1	0	0	10	1
174	175	180	1	0	0	0	1
175	174	180	1	0	0	0	1
176	177	180	1	0	0	0	1
177	176	180	1	0	0	0	1
178	179	180	1	0	0	0	1
179	178	180	1	0	0	0	1
180	181	180	1	0	0	0	1
181	180	180	1	0	0	0	1
182	183	180	1	0	0	0	1
183	182	180	1	0	0	0	1
184	185	180	1	0	0	0	1
185	184	180	1	0	0	0	1
186	187	180	1	0	0	0	1
187	186	180	1	0	0	0	1
188	189	180	1	0	0	0	1
189	188	180	1	0	0	0	1
[NumHoles] = 0
[NumBlockLabels] = 39
115.81463409115548	0	2	-1	1	0	2	-141	0
100.29841525293995	57.907317045577742	2	-1	3	0	2	141	0
57.907317045577742	100.29841525293995	2	-1	2	0	2	-141	0
1.4210854715202004e-014	115.81463409115548	2	-1	1	0	2	141	0
-57.907317045577742	100.29841525293995	2	-1	3	0	2	-141	0
-100.29841525293992	57.90731704557777	2	-1	2	0	2	141	0
-115.81463409115548	4.9737991503207013e-014	2	-1	1	0	2	-141	0
-100.29841525293998	-57.907317045577692	2	-1	3	0	2	141	0
-57.907317045577727	-100.29841525293995	2	-1	2	0	2	-141	0
4.2632564145606011e-014	-115.81463409115548	2	-1	1	0	2	141	0
57.907317045577727	-100.29841525293995	2	-1	3	0	2	-141	0
100.29841525293995	-57.907317045577734	2	-1	2	0	2	141	0
128.84003680883427	0	2	-1	1	0	2	-141	0
111.57874490097264	64.420018404417135	2	-1	3	0	2	141	0
64.420018404417135	111.57874490097265	2	-1	2	0	2	-141	0
1.4210854715202004e-014	128.84003680883427	2	-1	1	0	2	141	0
-64.420018404417135	111.57874490097264	2	-1	3	0	2	-141	0
-111.57874490097262	64.420018404417164	2	-1	2	0	2	141	0
-128.84003680883427	4.9737991503207013e-014	2	-1	1	0	2	-141	0
-111.57874490097268	-64.420018404417078	2	-1	3	0	2	141	0
-64.420018404417121	-111.57874490097265	2	-1	2	0	2	-141	0
4.9737991503207013e-014	-128.84003680883427	2	-1	1	0	2	141	0
64.420018404417107	-111.57874490097265	2	-1	3	0	2	-141	0
111.57874490097265	-64.420018404417135	2	-1	2	0	2	141	0
152.3036770935652	-40.809647281511275	4	-1	0	0	1	1	0
-90.414509483837151	-43.541332939348557	3	-1	0	205.71428571428575	11	1	0
43.541332939348557	-90.414509483837151	3	-1	0	475.71428571428578	12	1	0
90.414509483837165	43.541332939348536	3	-1	0	385.71428571428578	13	1	0
-43.541332939348564	90.414509483837179	3	-1	0	655.71428571428544	14	1	0
-44.465003657617153	-21.413217186692346	4	-1	0	0	10	1	0
103.6510702134717	0	1	-1	0	0	0	1	0
180.5	0	1	-1	0	0	0	1	0
266.70354017822132	53.050632565385733	5	-1	0	0	0	1	0
254.792776787577	105.53862374011511	6	-1	0	0	0	1	0
232.5145380117475	155.36124730512449	7	-1	0	0	0	1	0
200.46477246638625	200.46477246638619	8	-1	0	0	0	1	0
159.64707481699	238.92873216379564	9	-1	0	0	0	1	0
111.4428824108908	269.04691814632258	10	-1	0	0	0	1	0
57.565580017758954	289.4017138104104	11	-1	0	0	0	1	0
