[Format]      =  4.0
[Frequency]   =  0
[Precision]   =  1e-008
[MinAngle]    =  30
[DoSmartMesh] =  1
[Depth]       =  1
[LengthUnits] =  millimeters
[ProblemType] =  planar
[Coordinates] =  cartesian
[ACSolver]    =  0
[PrevType]    =  0
[PrevSoln]    =  ""
[Comment]     =  "Add comments here."
[PointProps]   = 0
[BdryProps]   = 0
[BlockProps]  = 11
  <BeginBlock>
    <BlockName> = "Air"
    <Mu_x> = 1
    <Mu_y> = 1
    <H_c> = 0
    <H_cAngle> = 0
    <J_re> = 0
    <J_im> = 0
    <Sigma> = 0
    <d_lam> = 0
    <Phi_h> = 0
    <Phi_hx> = 0
    <Phi_hy> = 0
    <LamType> = 0
    <LamFill> = 1
    <NStrands> = 0
    <WireD> = 0
    <BHPoints> = 0
  <EndBlock>
  <BeginBlock>
    <BlockName> = "18 AWG"
    <Mu_x> = 1
    <Mu_y> = 1
    <H_c> = 0
    <H_cAngle> = 0
    <J_re> = 0
    <J_im> = 0
    <Sigma> = 58
    <d_lam> = 0
    <Phi_h> = 0
    <Phi_hx> = 0
    <Phi_hy> = 0
    <LamType> = 3
    <LamFill> = 1
    <NStrands> = 1
    <WireD> = 1.0239652968433499
    <BHPoints> = 0
  <EndBlock>
  <BeginBlock>
    <BlockName> = "N40"
    <Mu_x> = 1.044
    <Mu_y> = 1.044
    <H_c> = 963000
    <H_cAngle> = 0
    <J_re> = 0
    <J_im> = 0
    <Sigma> = 555000
    <d_lam> = 0
    <Phi_h> = 0
    <Phi_hx> = 0
    <Phi_hy> = 0
    <LamType> = 0
    <LamFill> = 1
    <NStrands> = 0
    <WireD> = 0
    <BHPoints> = 0
  <EndBlock>
  <BeginBlock>
    <BlockName> = "M19_29Ga"
    <Mu_x> = 0
    <Mu_y> = 0
    <H_c> = 0
    <H_cAngle> = 0
    <J_re> = 0
    <J_im> = 0
    <Sigma> = 0
    <d_lam> = 0.35999999999999999
    <Phi_h> = 0
    <Phi_hx> = 0
    <Phi_hy> = 0
    <LamType> = 0
    <LamFill> = 0.91000000000000003
    <NStrands> = 0
    <WireD> = 0
    <BHPoints> = 187
      0	0
      0.51870000000000005	49
      0.66139999999999999	63
      0.72040000000000004	69
      0.76580000000000004	74
      0.80400000000000005	78
      0.83760000000000001	82
      0.86809999999999998	86
      0.89610000000000001	90
      0.92210000000000003	94
      0.9466	98
      0.96970000000000001	102
      0.99170000000000003	106
      1.0127999999999999	110
      1.0328999999999999	114
      1.0524	119
      1.0710999999999999	124
      1.0891999999999999	128
      1.1068	134
      1.1237999999999999	139
      1.1404000000000001	145
      1.1565000000000001	151
      1.1722999999999999	157
      1.1877	164
      1.2027000000000001	172
      1.2174	180
      1.2318	189
      1.2459	199
      1.2598	209
      1.2734000000000001	221
      1.2867	234
      1.2999000000000001	248
      1.3128	264
      1.3254999999999999	282
      1.3380000000000001	302
      1.3503000000000001	324
      1.3625	349
      1.3744000000000001	377
      1.3862000000000001	409
      1.3978999999999999	446
      1.4094	486
      1.4207000000000001	532
      1.4319	584
      1.4430000000000001	641
      1.4539	705
      1.4646999999999999	776
      1.4754	855
      1.486	942
      1.4964999999999999	1037
      1.5067999999999999	1141
      1.5169999999999999	1256
      1.5271999999999999	1380
      1.5371999999999999	1515
      1.5471999999999999	1661
      1.5569999999999999	1818
      1.5667	1987
      1.5764	2167
      1.5860000000000001	2357
      1.5954999999999999	2558
      1.6049	2769
      1.6142000000000001	2990
      1.6234	3220
      1.6326000000000001	3459
      1.6416999999999999	3706
      1.6507000000000001	3961
      1.6597	4224
      1.6685000000000001	4495
      1.6773	4773
      1.6860999999999999	5058
      1.6948000000000001	5352
      1.7034	5653
      1.7119	5962
      1.7203999999999999	6280
      1.7289000000000001	6606
      1.7372000000000001	6942
      1.7456	7286
      1.7538	7641
      1.762	8007
      1.7702	8384
      1.7783	8773
      1.7863	9175
      1.7943	9590
      1.8023	10020
      1.8102	10466
      1.8180000000000001	10929
      1.8258000000000001	11409
      1.8335999999999999	11909
      1.8412999999999999	12430
      1.849	12972
      1.8566	13539
      1.8642000000000001	14132
      1.8716999999999999	14752
      1.8792	15402
      1.8867	16085
      1.8940999999999999	16802
      1.9014	17557
      1.9088000000000001	18353
      1.9160999999999999	19192
      1.9233	20078
      1.9306000000000001	21016
      1.9377	22008
      1.9449000000000001	23059
      1.952	24174
      1.9591000000000001	25357
      1.9661	26614
      1.9731000000000001	27948
      1.9801	29367
      1.9870000000000001	30873
      1.994	32474
      2.0007999999999999	34174
      2.0076999999999998	35978
      2.0145	37891
      2.0213000000000001	39915
      2.028	42056
      2.0348000000000002	44315
      2.0413999999999999	46694
      2.0480999999999998	49194
      2.0547	51814
      2.0613999999999999	54555
      2.0678999999999998	57412
      2.0745	60385
      2.081	63468
      2.0874999999999999	66657
      2.0939999999999999	69947
      2.1004	73333
      2.1067999999999998	76809
      2.1132	80369
      2.1196000000000002	84007
      2.1259000000000001	87716
      2.1322000000000001	91492
      2.1385000000000001	95328
      2.1448	99220
      2.1509999999999998	103162
      2.1573000000000002	107149
      2.1634000000000002	111177
      2.1696	115242
      2.1758000000000002	119339
      2.1819000000000002	123466
      2.1880000000000002	127619
      2.1941000000000002	131794
      2.2000999999999999	135990
      2.2061999999999999	140203
      2.2122000000000002	144432
      2.2181999999999999	148673
      2.2242000000000002	152926
      2.2301000000000002	157188
      2.2360000000000002	161458
      2.242	165734
      2.2477999999999998	170015
      2.2536999999999998	174300
      2.2595999999999998	178587
      2.2654000000000001	182876
      2.2711999999999999	187166
      2.2770000000000001	191455
      2.2827999999999999	195743
      2.2885	200030
      2.2942999999999998	204314
      2.2999999999999998	208595
      2.3056999999999999	212872
      2.3113999999999999	217146
      2.3170000000000002	221415
      2.3227000000000002	225679
      2.3283	229938
      2.3338999999999999	234191
      2.3395000000000001	238438
      2.3451	242679
      2.3506999999999998	246914
      2.3561999999999999	251142
      2.3616999999999999	255362
      2.3672	259576
      2.3727	263783
      2.3782000000000001	267982
      2.3837000000000002	272173
      2.3891	276357
      2.3944999999999999	280533
      2.3999999999999999	284701
      2.4053	288860
      2.4106999999999998	293012
      2.4161000000000001	297155
      2.4215	301290
      2.4268000000000001	305417
      2.4321000000000002	309536
      2.4373999999999998	313646
      2.4426999999999999	317747
      2.448	321840
      2.4533	325924
      2.4584999999999999	330000
  <EndBlock>
  <BeginBlock>
    <BlockName> = "u1"
    <Mu_x> = 0.37737277525645235
    <Mu_y> = 0.37737277525645235
    <H_c> = 0
    <H_cAngle> = 0
    <J_re> = 0
    <J_im> = 0
    <Sigma> = 0
    <d_lam> = 0
    <Phi_h> = 0
    <Phi_hx> = 0
    <Phi_hy> = 0
    <LamType> = 0
    <LamFill> = 1
    <NStrands> = 0
    <WireD> = 0
    <BHPoints> = 0
  <EndBlock>
  <BeginBlock>
    <BlockName> = "u2"
    <Mu_x> = 7.7200304346442108
    <Mu_y> = 7.7200304346442108
    <H_c> = 0
    <H_cAngle> = 0
    <J_re> = 0
    <J_im> = 0
    <Sigma> = 0
    <d_lam> = 0
    <Phi_h> = 0
    <Phi_hx> = 0
    <Phi_hy> = 0
    <LamType> = 0
    <LamFill> = 1
    <NStrands> = 0
    <WireD> = 0
    <BHPoints> = 0
  <EndBlock>
  <BeginBlock>
    <BlockName> = "u3"
    <Mu_x> = 0.069449425895143593
    <Mu_y> = 0.069449425895143593
    <H_c> = 0
    <H_cAngle> = 0
    <J_re> = 0
    <J_im> = 0
    <Sigma> = 0
    <d_lam> = 0
    <Phi_h> = 0
    <Phi_hx> = 0
    <Phi_hy> = 0
    <LamType> = 0
    <LamFill> = 1
    <NStrands> = 0
    <WireD> = 0
    <BHPoints> = 0
  <EndBlock>
  <BeginBlock>
    <BlockName> = "u4"
    <Mu_x> = 23.31949550539958
    <Mu_y> = 23.31949550539958
    <H_c> = 0
    <H_cAngle> = 0
    <J_re> = 0
    <J_im> = 0
    <Sigma> = 0
    <d_lam> = 0
    <Phi_h> = 0
    <Phi_hx> = 0
    <Phi_hy> = 0
    <LamType> = 0
    <LamFill> = 1
    <NStrands> = 0
    <WireD> = 0
    <BHPoints> = 0
  <EndBlock>
  <BeginBlock>
    <BlockName> = "u5"
    <Mu_x> = 0.026883543752277105
    <Mu_y> = 0.026883543752277105
    <H_c> = 0
    <H_cAngle> = 0
    <J_re> = 0
    <J_im> = 0
    <Sigma> = 0
    <d_lam> = 0
    <Phi_h> = 0
    <Phi_hx> = 0
    <Phi_hy> = 0
    <LamType> = 0
    <LamFill> = 1
    <NStrands> = 0
    <WireD> = 0
    <BHPoints> = 0
  <EndBlock>
  <BeginBlock>
    <BlockName> = "u6"
    <Mu_x> = 63.839650875508823
    <Mu_y> = 63.839650875508823
    <H_c> = 0
    <H_cAngle> = 0
    <J_re> = 0
    <J_im> = 0
    <Sigma> = 0
    <d_lam> = 0
    <Phi_h> = 0
    <Phi_hx> = 0
    <Phi_hy> = 0
    <LamType> = 0
    <LamFill> = 1
    <NStrands> = 0
    <WireD> = 0
    <BHPoints> = 0
  <EndBlock>
  <BeginBlock>
    <BlockName> = "u7"
    <Mu_x> = 0.0070407582729502555
    <Mu_y> = 0.0070407582729502555
    <H_c> = 0
    <H_cAngle> = 0
    <J_re> = 0
    <J_im> = 0
    <Sigma> = 0
    <d_lam> = 0
    <Phi_h> = 0
    <Phi_hx> = 0
    <Phi_hy> = 0
    <LamType> = 0
    <LamFill> = 1
    <NStrands> = 0
    <WireD> = 0
    <BHPoints> = 0
  <EndBlock>
[CircuitProps]  = 3
  <BeginCircuit>
    <CircuitName> = "U"
    <TotalAmps_re> = 3.6287736158580417
    <TotalAmps_im> = 0
    <CircuitType> = 1
  <EndCircuit>
  <BeginCircuit>
    <CircuitName> = "V"
    <TotalAmps_re> = 2.1263216592461647
    <TotalAmps_im> = 0
    <CircuitType> = 1
  <EndCircuit>
  <BeginCircuit>
    <CircuitName> = "W"
    <TotalAmps_re> = -5.755095275104205
    <TotalAmps_im> = -0
    <CircuitType> = 1
  <EndCircuit>
[NumPoints] = 190
96.103596923257044	-25.750881185312849	0	0
99.345669037981182	-5.4265335900431992	0	0
88.74913993787446	-44.973318575523599	0	0
101.27752069055931	-5.9441716802482425	0	0
90.680991590452592	-45.490956665728646	0	0
102.69454297488733	-12.837062925685769	0	0
95.354614509128083	-40.230048883820395	0	0
122.06010797011378	-18.026050427129114	0	0
141.38279537511539	-23.20354891289832	0	0
114.72017950435453	-45.419036385263738	0	0
134.04286690935612	-50.596534871032951	0	0
143.27421090424826	0	0	0
124.07910635024842	-71.637105452124118	0	0
123.38398782531401	3.5527136788005009e-015	0	0
106.85366787695183	-61.691993912656997	0	0
96.10359692325703	25.750881185312849	0	0
88.749139937874446	44.973318575523599	0	0
99.345669037981182	5.4265335900431957	0	0
90.680991590452606	45.490956665728639	0	0
101.27752069055933	5.9441716802482389	0	0
95.354614509128083	40.230048883820402	0	0
102.69454297488734	12.837062925685768	0	0
114.72017950435453	45.41903638526373	0	0
134.04286690935612	50.596534871032937	0	0
122.06010797011379	18.026050427129107	0	0
141.38279537511539	23.203548912898313	0	0
124.07910635024842	71.637105452124104	0	0
106.85366787695183	61.691993912657004	0	0
70.352715737944195	70.352715737944166	0	0
54.372350462457582	83.32260634783124	0	0
83.322606347831254	54.372350462457568	0	0
55.786564024830675	84.736819910204346	0	0
84.736819910204346	55.786564024830668	0	0
62.464494091066946	82.517551583442298	0	0
82.517551583442327	62.464494091066925	0	0
76.641071584850039	96.694129077225398	0	0
90.786260504082435	110.83931799645779	0	0
96.694129077225412	76.641071584850039	0	0
110.83931799645781	90.786260504082435	0	0
71.637105452124146	124.07910635024842	0	0
61.691993912657011	106.85366787695183	0	0
25.750881185312856	96.103596923257044	0	0
5.4265335900432063	99.345669037981182	0	0
44.973318575523606	88.74913993787446	0	0
5.9441716802482496	101.27752069055931	0	0
45.490956665728646	90.680991590452592	0	0
12.837062925685776	102.69454297488733	0	0
40.230048883820402	95.354614509128069	0	0
18.026050427129121	122.06010797011378	0	0
23.203548912898331	141.38279537511539	0	0
45.419036385263745	114.72017950435452	0	0
50.596534871032958	134.04286690935612	0	0
7.1054273576010019e-015	143.27421090424826	0	0
3.5527136788005009e-015	123.38398782531401	0	0
-25.750881185312835	96.10359692325703	0	0
-44.973318575523578	88.74913993787446	0	0
-5.426533590043185	99.345669037981168	0	0
-45.490956665728625	90.680991590452606	0	0
-5.9441716802482247	101.27752069055933	0	0
-40.230048883820388	95.354614509128083	0	0
-12.837062925685753	102.69454297488733	0	0
-45.419036385263716	114.72017950435452	0	0
-50.596534871032922	134.04286690935612	0	0
-18.026050427129086	122.06010797011379	0	0
-23.203548912898299	141.38279537511536	0	0
-71.637105452124104	124.07910635024842	0	0
-61.691993912656969	106.85366787695185	0	0
-70.352715737944195	70.35271573794418	0	0
-83.322606347831268	54.372350462457561	0	0
-54.372350462457575	83.322606347831254	0	0
-84.73681991020436	55.78656402483066	0	0
-55.786564024830682	84.736819910204332	0	0
-82.517551583442312	62.464494091066925	0	0
-62.464494091066939	82.517551583442298	0	0
-96.694129077225426	76.641071584850025	0	0
-110.83931799645781	90.786260504082421	0	0
-76.641071584850053	96.694129077225398	0	0
-90.786260504082449	110.83931799645779	0	0
-124.07910635024842	71.637105452124104	0	0
-106.85366787695185	61.691993912656997	0	0
-96.103596923257044	25.75088118531286	0	0
-99.345669037981182	5.4265335900432099	0	0
-88.74913993787446	44.973318575523606	0	0
-101.27752069055931	5.9441716802482532	0	0
-90.680991590452592	45.490956665728653	0	0
-102.69454297488733	12.837062925685782	0	0
-95.354614509128069	40.230048883820409	0	0
-122.06010797011378	18.026050427129128	0	0
-141.38279537511539	23.203548912898341	0	0
-114.72017950435452	45.419036385263752	0	0
-134.04286690935612	50.596534871032965	0	0
-143.27421090424826	1.4210854715202004e-014	0	0
-123.38398782531401	1.0658141036401503e-014	0	0
-96.10359692325703	-25.750881185312874	0	0
-88.749139937874446	-44.973318575523621	0	0
-99.345669037981182	-5.4265335900432206	0	0
-90.680991590452592	-45.49095666572866	0	0
-101.27752069055931	-5.9441716802482603	0	0
-95.354614509128069	-40.230048883820423	0	0
-102.69454297488733	-12.837062925685792	0	0
-114.72017950435452	-45.419036385263766	0	0
-134.04286690935612	-50.596534871032972	0	0
-122.06010797011379	-18.026050427129132	0	0
-141.38279537511539	-23.203548912898334	0	0
-124.07910635024841	-71.637105452124132	0	0
-106.85366787695182	-61.691993912657026	0	0
-70.352715737944209	-70.352715737944152	0	0
-54.372350462457611	-83.32260634783124	0	0
-83.322606347831282	-54.372350462457533	0	0
-55.786564024830703	-84.736819910204318	0	0
-84.73681991020436	-55.786564024830618	0	0
-62.464494091066975	-82.517551583442284	0	0
-82.517551583442327	-62.464494091066889	0	0
-76.641071584850081	-96.694129077225369	0	0
-90.786260504082492	-110.83931799645777	0	0
-96.694129077225455	-76.641071584849996	0	0
-110.83931799645785	-90.786260504082392	0	0
-71.637105452124189	-124.07910635024838	0	0
-61.691993912657054	-106.8536678769518	0	0
-25.750881185312867	-96.103596923257044	0	0
-5.426533590043217	-99.345669037981182	0	0
-44.973318575523621	-88.74913993787446	0	0
-5.9441716802482603	-101.27752069055931	0	0
-45.49095666572866	-90.680991590452592	0	0
-12.837062925685789	-102.69454297488733	0	0
-40.230048883820416	-95.354614509128069	0	0
-18.026050427129135	-122.06010797011378	0	0
-23.203548912898349	-141.38279537511536	0	0
-45.419036385263759	-114.72017950435452	0	0
-50.596534871032972	-134.04286690935612	0	0
-2.8421709430404007e-014	-143.27421090424826	0	0
-1.7763568394002505e-014	-123.38398782531401	0	0
25.750881185312874	-96.10359692325703	0	0
44.973318575523621	-88.749139937874446	0	0
5.4265335900432206	-99.345669037981182	0	0
45.49095666572866	-90.680991590452592	0	0
5.9441716802482603	-101.27752069055931	0	0
40.230048883820423	-95.354614509128069	0	0
12.837062925685792	-102.69454297488733	0	0
45.419036385263766	-114.72017950435452	0	0
50.596534871032972	-134.04286690935612	0	0
18.026050427129132	-122.06010797011379	0	0
23.203548912898334	-141.38279537511539	0	0
71.637105452124132	-124.07910635024841	0	0
61.691993912657026	-106.85366787695182	0	0
70.352715737944152	-70.352715737944209	0	0
83.32260634783124	-54.372350462457611	0	0
54.372350462457533	-83.322606347831282	0	0
84.736819910204318	-55.786564024830703	0	0
55.786564024830618	-84.73681991020436	0	0
82.517551583442284	-62.464494091066975	0	0
62.464494091066889	-82.517551583442327	0	0
96.694129077225369	-76.641071584850081	0	0
110.83931799645777	-90.786260504082492	0	0
76.641071584849996	-96.694129077225455	0	0
90.786260504082392	-110.83931799645785	0	0
173.8666487320323	-46.58742811845373	0	0
-173.8666487320323	46.587428118453751	0	0
85.566889812324845	41.206842343916144	0	10
31.367290378668944	89.642565684005078	0	10
89.642565684005092	-31.367290378668923	0	10
86.694706237382732	41.74997010889826	0	10
31.780727695091382	90.824101651766625	0	10
90.824101651766625	-31.780727695091382	0	10
-41.206842343916136	85.566889812324845	0	10
-89.642565684005078	31.367290378668944	0	10
-41.749970108898253	86.694706237382732	0	10
-90.824101651766625	31.780727695091382	0	10
-85.566889812324845	-41.206842343916136	0	10
-31.367290378668965	-89.642565684005078	0	10
-86.694706237382732	-41.749970108898253	0	10
-31.780727695091404	-90.824101651766625	0	10
41.206842343916129	-85.56688981232486	0	10
41.749970108898246	-86.694706237382746	0	10
0	270	0	0
0	-270	0	0
0	-273.85714285714289	0	0
0	273.85714285714289	0	0
0	-277.71428571428572	0	0
0	277.71428571428572	0	0
0	-281.57142857142861	0	0
0	281.57142857142861	0	0
0	-285.42857142857144	0	0
0	285.42857142857144	0	0
0	-289.28571428571428	0	0
0	289.28571428571428	0	0
0	-293.14285714285717	0	0
0	293.14285714285717	0	0
0	-297.00000000000006	0	0
0	297.00000000000006	0	0
[NumSegments] = 100
1	3	-1	0	0	0
2	4	-1	0	0	0
3	5	-1	0	0	0
4	6	-1	0	0	0
5	7	-1	0	0	0
7	8	-1	0	0	0
6	9	-1	0	0	0
9	10	-1	0	0	0
16	18	-1	0	0	0
17	19	-1	0	0	0
18	20	-1	0	0	0
19	21	-1	0	0	0
20	22	-1	0	0	0
22	23	-1	0	0	0
21	24	-1	0	0	0
24	25	-1	0	0	0
29	31	-1	0	0	0
30	32	-1	0	0	0
31	33	-1	0	0	0
32	34	-1	0	0	0
33	35	-1	0	0	0
35	36	-1	0	0	0
34	37	-1	0	0	0
37	38	-1	0	0	0
42	44	-1	0	0	0
43	45	-1	0	0	0
44	46	-1	0	0	0
45	47	-1	0	0	0
46	48	-1	0	0	0
48	49	-1	0	0	0
47	50	-1	0	0	0
50	51	-1	0	0	0
55	57	-1	0	0	0
56	58	-1	0	0	0
57	59	-1	0	0	0
58	60	-1	0	0	0
59	61	-1	0	0	0
61	62	-1	0	0	0
60	63	-1	0	0	0
63	64	-1	0	0	0
68	70	-1	0	0	0
69	71	-1	0	0	0
70	72	-1	0	0	0
71	73	-1	0	0	0
72	74	-1	0	0	0
74	75	-1	0	0	0
73	76	-1	0	0	0
76	77	-1	0	0	0
81	83	-1	0	0	0
82	84	-1	0	0	0
83	85	-1	0	0	0
84	86	-1	0	0	0
85	87	-1	0	0	0
87	88	-1	0	0	0
86	89	-1	0	0	0
89	90	-1	0	0	0
94	96	-1	0	0	0
95	97	-1	0	0	0
96	98	-1	0	0	0
97	99	-1	0	0	0
98	100	-1	0	0	0
100	101	-1	0	0	0
99	102	-1	0	0	0
102	103	-1	0	0	0
107	109	-1	0	0	0
108	110	-1	0	0	0
109	111	-1	0	0	0
110	112	-1	0	0	0
111	113	-1	0	0	0
113	114	-1	0	0	0
112	115	-1	0	0	0
115	116	-1	0	0	0
120	122	-1	0	0	0
121	123	-1	0	0	0
122	124	-1	0	0	0
123	125	-1	0	0	0
124	126	-1	0	0	0
126	127	-1	0	0	0
125	128	-1	0	0	0
128	129	-1	0	0	0
133	135	-1	0	0	0
134	136	-1	0	0	0
135	137	-1	0	0	0
136	138	-1	0	0	0
137	139	-1	0	0	0
139	140	-1	0	0	0
138	141	-1	0	0	0
141	142	-1	0	0	0
146	148	-1	0	0	0
147	149	-1	0	0	0
148	150	-1	0	0	0
149	151	-1	0	0	0
150	152	-1	0	0	0
152	153	-1	0	0	0
151	154	-1	0	0	0
154	155	-1	0	0	0
159	162	-1	0	0	10
160	163	-1	0	0	10
165	167	-1	0	0	10
169	171	-1	0	0	10
[NumArcSegments] = 118
0	1	11.873454021061251	1	0	0	0	1
2	0	11.873454021061251	1	0	0	0	1
8	11	9.4018763526877862	1	0	0	0	1
12	10	9.4018763526877862	1	0	0	0	1
7	13	9.4018763526877862	1	0	0	0	1
14	9	9.4018763526877862	1	0	0	0	1
15	16	11.873454021061251	1	0	0	0	1
17	15	11.873454021061251	1	0	0	0	1
23	26	9.4018763526877862	1	0	0	0	1
11	25	9.4018763526877862	1	0	0	0	1
22	27	9.4018763526877862	1	0	0	0	1
13	24	9.4018763526877862	1	0	0	0	1
28	29	11.873454021061251	1	0	0	0	1
30	28	11.873454021061251	1	0	0	0	1
36	39	9.4018763526877862	1	0	0	0	1
26	38	9.4018763526877862	1	0	0	0	1
35	40	9.4018763526877862	1	0	0	0	1
27	37	9.4018763526877862	1	0	0	0	1
41	42	11.873454021061251	1	0	0	0	1
43	41	11.873454021061251	1	0	0	0	1
49	52	9.4018763526877862	1	0	0	0	1
39	51	9.4018763526877862	1	0	0	0	1
48	53	9.4018763526877862	1	0	0	0	1
40	50	9.4018763526877862	1	0	0	0	1
54	55	11.873454021061251	1	0	0	0	1
56	54	11.873454021061251	1	0	0	0	1
62	65	9.4018763526877862	1	0	0	0	1
52	64	9.4018763526877862	1	0	0	0	1
61	66	9.4018763526877862	1	0	0	0	1
53	63	9.4018763526877862	1	0	0	0	1
67	68	11.873454021061251	1	0	0	0	1
69	67	11.873454021061251	1	0	0	0	1
75	78	9.4018763526877862	1	0	0	0	1
65	77	9.4018763526877862	1	0	0	0	1
74	79	9.4018763526877862	1	0	0	0	1
66	76	9.4018763526877862	1	0	0	0	1
80	81	11.873454021061251	1	0	0	0	1
82	80	11.873454021061251	1	0	0	0	1
88	91	9.4018763526877862	1	0	0	0	1
78	90	9.4018763526877862	1	0	0	0	1
87	92	9.4018763526877862	1	0	0	0	1
79	89	9.4018763526877862	1	0	0	0	1
93	94	11.873454021061251	1	0	0	0	1
95	93	11.873454021061251	1	0	0	0	1
101	104	9.4018763526877862	1	0	0	0	1
91	103	9.4018763526877862	1	0	0	0	1
100	105	9.4018763526877862	1	0	0	0	1
92	102	9.4018763526877862	1	0	0	0	1
106	107	11.873454021061251	1	0	0	0	1
108	106	11.873454021061251	1	0	0	0	1
114	117	9.4018763526877862	1	0	0	0	1
104	116	9.4018763526877862	1	0	0	0	1
113	118	9.4018763526877862	1	0	0	0	1
105	115	9.4018763526877862	1	0	0	0	1
119	120	11.873454021061251	1	0	0	0	1
121	119	11.873454021061251	1	0	0	0	1
127	130	9.4018763526877862	1	0	0	0	1
117	129	9.4018763526877862	1	0	0	0	1
126	131	9.4018763526877862	1	0	0	0	1
118	128	9.4018763526877862	1	0	0	0	1
132	133	11.873454021061251	1	0	0	0	1
134	132	11.873454021061251	1	0	0	0	1
140	143	9.4018763526877862	1	0	0	0	1
130	142	9.4018763526877862	1	0	0	0	1
139	144	9.4018763526877862	1	0	0	0	1
131	141	9.4018763526877862	1	0	0	0	1
145	146	11.873454021061251	1	0	0	0	1
147	145	11.873454021061251	1	0	0	0	1
153	12	9.4018763526877862	1	0	0	0	1
143	155	9.4018763526877862	1	0	0	0	1
152	14	9.4018763526877862	1	0	0	0	1
144	154	9.4018763526877862	1	0	0	0	1
156	157	180	1	0	0	0	1
157	156	180	1	0	0	0	1
1	17	6.2530919578774915	1	0	0	0	1
16	30	6.2530919578774906	1	0	0	0	1
29	43	6.2530919578774986	1	0	0	0	1
42	56	6.2530919578774871	1	0	0	0	1
55	69	6.253091957877511	1	0	0	0	1
68	82	6.2530919578774817	1	0	0	0	1
81	95	6.2530919578775075	1	0	0	0	1
94	108	6.2530919578774613	1	0	0	0	1
107	121	6.253091957877511	1	0	0	0	1
120	134	6.253091957877511	1	0	0	0	1
133	147	6.2530919578774613	1	0	0	0	1
146	2	6.2530919578775199	1	0	0	0	1
158	159	45	1	0	0	10	1
160	158	45	1	0	0	10	1
161	162	45	1	0	0	10	1
163	161	45	1	0	0	10	1
164	165	45	1	0	0	10	1
159	164	45	1	0	0	10	1
166	167	45	1	0	0	10	1
162	166	45	1	0	0	10	1
168	169	45	1	0	0	10	1
165	168	45	1	0	0	10	1
170	171	45	1	0	0	10	1
167	170	45	1	0	0	10	1
172	160	45	1	0	0	10	1
169	172	45	1	0	0	10	1
173	163	45	1	0	0	10	1
171	173	45	1	0	0	10	1
174	175	180	1	0	0	0	1
175	174	180	1	0	0	0	1
176	177	180	1	0	0	0	1
177	176	180	1	0	0	0	1
178	179	180	1	0	0	0	1
179	178	180	1	0	0	0	1
180	181	180	1	0	0	0	1
181	180	180	1	0	0	0	1
182	183	180	1	0	0	0	1
183	182	180	1	0	0	0	1
184	185	180	1	0	0	0	1
185	184	180	1	0	0	0	1
186	187	180	1	0	0	0	1
187	186	180	1	0	0	0	1
188	189	180	1	0	0	0	1
189	188	180	1	0	0	0	1
[NumHoles] = 0
[NumBlockLabels] = 39
113.4388762858469	-3.5527136788005009e-015	2	-1	1	0	2	-350	0
98.240948640303543	56.719438142923437	2	-1	3	0	2	350	0
56.719438142923437	98.240948640303543	2	-1	2	0	2	-350	0
1.4210854715202004e-014	113.4388762858469	2	-1	1	0	2	350	0
-56.719438142923437	98.240948640303543	2	-1	3	0	2	-350	0
-98.240948640303529	56.719438142923465	2	-1	2	0	2	350	0
-113.4388762858469	4.9737991503207013e-014	2	-1	1	0	2	-350	0
-98.240948640303571	-56.719438142923401	2	-1	3	0	2	350	0
-56.71943814292343	-98.240948640303543	2	-1	2	0	2	-350	0
4.6185277824406512e-014	-113.4388762858469	2	-1	1	0	2	350	0
56.719438142923423	-98.240948640303543	2	-1	3	0	2	-350	0
98.240948640303543	-56.719438142923437	2	-1	2	0	2	350	0
133.32909936478114	7.1054273576010019e-015	2	-1	1	0	2	-350	0
115.46638711360013	66.664549682390572	2	-1	3	0	2	350	0
66.664549682390572	115.46638711360012	2	-1	2	0	2	-350	0
7.1054273576010019e-015	133.32909936478114	2	-1	1	0	2	350	0
-66.664549682390572	115.46638711360013	2	-1	3	0	2	-350	0
-115.46638711360012	66.6645496823906	2	-1	2	0	2	350	0
-133.32909936478114	4.9737991503207013e-014	2	-1	1	0	2	-350	0
-115.46638711360016	-66.664549682390515	2	-1	3	0	2	350	0
-66.664549682390543	-115.46638711360013	2	-1	2	0	2	-350	0
4.9737991503207013e-014	-133.32909936478114	2	-1	1	0	2	350	0
66.664549682390543	-115.46638711360015	2	-1	3	0	2	-350	0
115.46638711360013	-66.664549682390557	2	-1	2	0	2	350	0
156.12945464281628	-41.834761286254214	4	-1	0	0	1	1	0
86.130798024853789	41.478406226407202	3	-1	0	25.714285714285715	11	1	0
-41.478406226407195	86.130798024853789	3	-1	0	295.71428571428572	12	1	0
-86.130798024853789	-41.478406226407195	3	-1	0	205.71428571428572	13	1	0
41.478406226407188	-86.130798024853803	3	-1	0	475.71428571428572	14	1	0
42.783444906162423	20.603421171958072	4	-1	0	0	10	1	0
97.858814608551157	0	1	-1	0	0	0	1	0
180.5	0	1	-1	0	0	0	1	0
266.70354017822132	53.050632565385733	5	-1	0	0	0	1	0
254.792776787577	105.53862374011511	6	-1	0	0	0	1	0
232.5145380117475	155.36124730512449	7	-1	0	0	0	1	0
200.46477246638625	200.46477246638619	8	-1	0	0	0	1	0
159.64707481699	238.92873216379564	9	-1	0	0	0	1	0
111.4428824108908	269.04691814632258	10	-1	0	0	0	1	0
57.565580017758954	289.4017138104104	11	-1	0	0	0	1	0
