[Format]      =  4.0
[Frequency]   =  0
[Precision]   =  1e-008
[MinAngle]    =  30
[DoSmartMesh] =  1
[Depth]       =  1
[LengthUnits] =  millimeters
[ProblemType] =  planar
[Coordinates] =  cartesian
[ACSolver]    =  0
[PrevType]    =  0
[PrevSoln]    =  ""
[Comment]     =  "Add comments here."
[PointProps]   = 0
[BdryProps]   = 0
[BlockProps]  = 11
  <BeginBlock>
    <BlockName> = "Air"
    <Mu_x> = 1
    <Mu_y> = 1
    <H_c> = 0
    <H_cAngle> = 0
    <J_re> = 0
    <J_im> = 0
    <Sigma> = 0
    <d_lam> = 0
    <Phi_h> = 0
    <Phi_hx> = 0
    <Phi_hy> = 0
    <LamType> = 0
    <LamFill> = 1
    <NStrands> = 0
    <WireD> = 0
    <BHPoints> = 0
  <EndBlock>
  <BeginBlock>
    <BlockName> = "18 AWG"
    <Mu_x> = 1
    <Mu_y> = 1
    <H_c> = 0
    <H_cAngle> = 0
    <J_re> = 0
    <J_im> = 0
    <Sigma> = 58
    <d_lam> = 0
    <Phi_h> = 0
    <Phi_hx> = 0
    <Phi_hy> = 0
    <LamType> = 3
    <LamFill> = 1
    <NStrands> = 1
    <WireD> = 1.0239652968433499
    <BHPoints> = 0
  <EndBlock>
  <BeginBlock>
    <BlockName> = "N40"
    <Mu_x> = 1.044
    <Mu_y> = 1.044
    <H_c> = 963000
    <H_cAngle> = 0
    <J_re> = 0
    <J_im> = 0
    <Sigma> = 555000
    <d_lam> = 0
    <Phi_h> = 0
    <Phi_hx> = 0
    <Phi_hy> = 0
    <LamType> = 0
    <LamFill> = 1
    <NStrands> = 0
    <WireD> = 0
    <BHPoints> = 0
  <EndBlock>
  <BeginBlock>
    <BlockName> = "M19_29Ga"
    <Mu_x> = 0
    <Mu_y> = 0
    <H_c> = 0
    <H_cAngle> = 0
    <J_re> = 0
    <J_im> = 0
    <Sigma> = 0
    <d_lam> = 0.35999999999999999
    <Phi_h> = 0
    <Phi_hx> = 0
    <Phi_hy> = 0
    <LamType> = 0
    <LamFill> = 0.91000000000000003
    <NStrands> = 0
    <WireD> = 0
    <BHPoints> = 187
      0	0
      0.51870000000000005	49
      0.66139999999999999	63
      0.72040000000000004	69
      0.76580000000000004	74
      0.80400000000000005	78
      0.83760000000000001	82
      0.86809999999999998	86
      0.89610000000000001	90
      0.92210000000000003	94
      0.9466	98
      0.96970000000000001	102
      0.99170000000000003	106
      1.0127999999999999	110
      1.0328999999999999	114
      1.0524	119
      1.0710999999999999	124
      1.0891999999999999	128
      1.1068	134
      1.1237999999999999	139
      1.1404000000000001	145
      1.1565000000000001	151
      1.1722999999999999	157
      1.1877	164
      1.2027000000000001	172
      1.2174	180
      1.2318	189
      1.2459	199
      1.2598	209
      1.2734000000000001	221
      1.2867	234
      1.2999000000000001	248
      1.3128	264
      1.3254999999999999	282
      1.3380000000000001	302
      1.3503000000000001	324
      1.3625	349
      1.3744000000000001	377
      1.3862000000000001	409
      1.3978999999999999	446
      1.4094	486
      1.4207000000000001	532
      1.4319	584
      1.4430000000000001	641
      1.4539	705
      1.4646999999999999	776
      1.4754	855
      1.486	942
      1.4964999999999999	1037
      1.5067999999999999	1141
      1.5169999999999999	1256
      1.5271999999999999	1380
      1.5371999999999999	1515
      1.5471999999999999	1661
      1.5569999999999999	1818
      1.5667	1987
      1.5764	2167
      1.5860000000000001	2357
      1.5954999999999999	2558
      1.6049	2769
      1.6142000000000001	2990
      1.6234	3220
      1.6326000000000001	3459
      1.6416999999999999	3706
      1.6507000000000001	3961
      1.6597	4224
      1.6685000000000001	4495
      1.6773	4773
      1.6860999999999999	5058
      1.6948000000000001	5352
      1.7034	5653
      1.7119	5962
      1.7203999999999999	6280
      1.7289000000000001	6606
      1.7372000000000001	6942
      1.7456	7286
      1.7538	7641
      1.762	8007
      1.7702	8384
      1.7783	8773
      1.7863	9175
      1.7943	9590
      1.8023	10020
      1.8102	10466
      1.8180000000000001	10929
      1.8258000000000001	11409
      1.8335999999999999	11909
      1.8412999999999999	12430
      1.849	12972
      1.8566	13539
      1.8642000000000001	14132
      1.8716999999999999	14752
      1.8792	15402
      1.8867	16085
      1.8940999999999999	16802
      1.9014	17557
      1.9088000000000001	18353
      1.9160999999999999	19192
      1.9233	20078
      1.9306000000000001	21016
      1.9377	22008
      1.9449000000000001	23059
      1.952	24174
      1.9591000000000001	25357
      1.9661	26614
      1.9731000000000001	27948
      1.9801	29367
      1.9870000000000001	30873
      1.994	32474
      2.0007999999999999	34174
      2.0076999999999998	35978
      2.0145	37891
      2.0213000000000001	39915
      2.028	42056
      2.0348000000000002	44315
      2.0413999999999999	46694
      2.0480999999999998	49194
      2.0547	51814
      2.0613999999999999	54555
      2.0678999999999998	57412
      2.0745	60385
      2.081	63468
      2.0874999999999999	66657
      2.0939999999999999	69947
      2.1004	73333
      2.1067999999999998	76809
      2.1132	80369
      2.1196000000000002	84007
      2.1259000000000001	87716
      2.1322000000000001	91492
      2.1385000000000001	95328
      2.1448	99220
      2.1509999999999998	103162
      2.1573000000000002	107149
      2.1634000000000002	111177
      2.1696	115242
      2.1758000000000002	119339
      2.1819000000000002	123466
      2.1880000000000002	127619
      2.1941000000000002	131794
      2.2000999999999999	135990
      2.2061999999999999	140203
      2.2122000000000002	144432
      2.2181999999999999	148673
      2.2242000000000002	152926
      2.2301000000000002	157188
      2.2360000000000002	161458
      2.242	165734
      2.2477999999999998	170015
      2.2536999999999998	174300
      2.2595999999999998	178587
      2.2654000000000001	182876
      2.2711999999999999	187166
      2.2770000000000001	191455
      2.2827999999999999	195743
      2.2885	200030
      2.2942999999999998	204314
      2.2999999999999998	208595
      2.3056999999999999	212872
      2.3113999999999999	217146
      2.3170000000000002	221415
      2.3227000000000002	225679
      2.3283	229938
      2.3338999999999999	234191
      2.3395000000000001	238438
      2.3451	242679
      2.3506999999999998	246914
      2.3561999999999999	251142
      2.3616999999999999	255362
      2.3672	259576
      2.3727	263783
      2.3782000000000001	267982
      2.3837000000000002	272173
      2.3891	276357
      2.3944999999999999	280533
      2.3999999999999999	284701
      2.4053	288860
      2.4106999999999998	293012
      2.4161000000000001	297155
      2.4215	301290
      2.4268000000000001	305417
      2.4321000000000002	309536
      2.4373999999999998	313646
      2.4426999999999999	317747
      2.448	321840
      2.4533	325924
      2.4584999999999999	330000
  <EndBlock>
  <BeginBlock>
    <BlockName> = "u1"
    <Mu_x> = 0.37737277525645235
    <Mu_y> = 0.37737277525645235
    <H_c> = 0
    <H_cAngle> = 0
    <J_re> = 0
    <J_im> = 0
    <Sigma> = 0
    <d_lam> = 0
    <Phi_h> = 0
    <Phi_hx> = 0
    <Phi_hy> = 0
    <LamType> = 0
    <LamFill> = 1
    <NStrands> = 0
    <WireD> = 0
    <BHPoints> = 0
  <EndBlock>
  <BeginBlock>
    <BlockName> = "u2"
    <Mu_x> = 7.7200304346442108
    <Mu_y> = 7.7200304346442108
    <H_c> = 0
    <H_cAngle> = 0
    <J_re> = 0
    <J_im> = 0
    <Sigma> = 0
    <d_lam> = 0
    <Phi_h> = 0
    <Phi_hx> = 0
    <Phi_hy> = 0
    <LamType> = 0
    <LamFill> = 1
    <NStrands> = 0
    <WireD> = 0
    <BHPoints> = 0
  <EndBlock>
  <BeginBlock>
    <BlockName> = "u3"
    <Mu_x> = 0.069449425895143593
    <Mu_y> = 0.069449425895143593
    <H_c> = 0
    <H_cAngle> = 0
    <J_re> = 0
    <J_im> = 0
    <Sigma> = 0
    <d_lam> = 0
    <Phi_h> = 0
    <Phi_hx> = 0
    <Phi_hy> = 0
    <LamType> = 0
    <LamFill> = 1
    <NStrands> = 0
    <WireD> = 0
    <BHPoints> = 0
  <EndBlock>
  <BeginBlock>
    <BlockName> = "u4"
    <Mu_x> = 23.31949550539958
    <Mu_y> = 23.31949550539958
    <H_c> = 0
    <H_cAngle> = 0
    <J_re> = 0
    <J_im> = 0
    <Sigma> = 0
    <d_lam> = 0
    <Phi_h> = 0
    <Phi_hx> = 0
    <Phi_hy> = 0
    <LamType> = 0
    <LamFill> = 1
    <NStrands> = 0
    <WireD> = 0
    <BHPoints> = 0
  <EndBlock>
  <BeginBlock>
    <BlockName> = "u5"
    <Mu_x> = 0.026883543752277105
    <Mu_y> = 0.026883543752277105
    <H_c> = 0
    <H_cAngle> = 0
    <J_re> = 0
    <J_im> = 0
    <Sigma> = 0
    <d_lam> = 0
    <Phi_h> = 0
    <Phi_hx> = 0
    <Phi_hy> = 0
    <LamType> = 0
    <LamFill> = 1
    <NStrands> = 0
    <WireD> = 0
    <BHPoints> = 0
  <EndBlock>
  <BeginBlock>
    <BlockName> = "u6"
    <Mu_x> = 63.839650875508823
    <Mu_y> = 63.839650875508823
    <H_c> = 0
    <H_cAngle> = 0
    <J_re> = 0
    <J_im> = 0
    <Sigma> = 0
    <d_lam> = 0
    <Phi_h> = 0
    <Phi_hx> = 0
    <Phi_hy> = 0
    <LamType> = 0
    <LamFill> = 1
    <NStrands> = 0
    <WireD> = 0
    <BHPoints> = 0
  <EndBlock>
  <BeginBlock>
    <BlockName> = "u7"
    <Mu_x> = 0.0070407582729502555
    <Mu_y> = 0.0070407582729502555
    <H_c> = 0
    <H_cAngle> = 0
    <J_re> = 0
    <J_im> = 0
    <Sigma> = 0
    <d_lam> = 0
    <Phi_h> = 0
    <Phi_hx> = 0
    <Phi_hy> = 0
    <LamType> = 0
    <LamFill> = 1
    <NStrands> = 0
    <WireD> = 0
    <BHPoints> = 0
  <EndBlock>
[CircuitProps]  = 3
  <BeginCircuit>
    <CircuitName> = "U"
    <TotalAmps_re> = 3.628773615858039
    <TotalAmps_im> = 0
    <CircuitType> = 1
  <EndCircuit>
  <BeginCircuit>
    <CircuitName> = "V"
    <TotalAmps_re> = -5.755095275104205
    <TotalAmps_im> = -0
    <CircuitType> = 1
  <EndCircuit>
  <BeginCircuit>
    <CircuitName> = "W"
    <TotalAmps_re> = 2.1263216592461633
    <TotalAmps_im> = 0
    <CircuitType> = 1
  <EndCircuit>
[NumPoints] = 190
94.965418662061552	-25.445907239382858	0	0
98.269737171864008	-2.9972809459030962	0	0
86.602729287005744	-46.539147144500873	0	0
100.20158882444214	-3.5149190361081359	0	0
88.534580939583876	-47.056785234705913	0	0
101.04998548053179	-16.042096449911096	0	0
95.532902703144757	-36.632129684682724	0	0
118.77372881397295	-20.791159162963151	0	0
136.47584164776273	-25.534426001101735	0	0
113.25664603658592	-41.381192397734779	0	0
130.9587588703757	-46.12445923587336	0	0
138.84402135011413	-7.1054273576010019e-015	0	0
120.24244965278781	-69.422010675057066	0	0
120.57972862680882	0	0	0
104.42510817225013	-60.289864313404401	0	0
94.965418662061552	25.445907239382855	0	0
86.602729287005758	46.539147144500866	0	0
98.269737171864008	2.9972809459030962	0	0
88.53458093958389	47.056785234705899	0	0
100.20158882444215	3.5149190361081324	0	0
95.532902703144757	36.632129684682724	0	0
101.04998548053177	16.042096449911099	0	0
113.25664603658593	41.381192397734765	0	0
130.9587588703757	46.124459235873331	0	0
118.77372881397295	20.791159162963147	0	0
136.47584164776273	25.534426001101728	0	0
120.24244965278784	69.422010675057052	0	0
104.42510817225016	60.289864313404394	0	0
69.519511422678704	69.519511422678676	0	0
51.730590027363149	83.605448341102644	0	0
83.605448341102644	51.730590027363121	0	0
53.144803589736242	85.019661903475722	0	0
85.019661903475736	53.144803589736242	0	0
64.417855795849064	79.490806253233643	0	0
79.490806253233657	64.417855795849036	0	0
77.392536416238187	92.465486873622766	0	0
90.351382411889375	105.42433286927397	0	0
92.46548687362278	77.392536416238158	0	0
105.42433286927395	90.351382411889361	0	0
69.422010675057081	120.2424496527878	0	0
60.289864313404422	104.42510817225013	0	0
25.445907239382866	94.965418662061552	0	0
2.9972809459031033	98.269737171864008	0	0
46.539147144500873	86.602729287005744	0	0
3.514919036108143	100.20158882444214	0	0
47.056785234705913	88.534580939583876	0	0
16.042096449911103	101.04998548053179	0	0
36.632129684682724	95.532902703144757	0	0
20.791159162963158	118.77372881397295	0	0
25.534426001101743	136.47584164776273	0	0
41.381192397734779	113.25664603658592	0	0
46.124459235873367	130.9587588703757	0	0
1.4210854715202004e-014	138.84402135011413	0	0
7.1054273576010019e-015	120.57972862680882	0	0
-25.445907239382841	94.965418662061552	0	0
-46.539147144500852	86.602729287005744	0	0
-2.997280945903082	98.269737171864008	0	0
-47.056785234705885	88.53458093958389	0	0
-3.5149190361081182	100.20158882444214	0	0
-36.63212968468271	95.532902703144742	0	0
-16.042096449911085	101.04998548053177	0	0
-41.38119239773475	113.25664603658593	0	0
-46.124459235873331	130.9587588703757	0	0
-20.791159162963126	118.77372881397295	0	0
-25.534426001101714	136.47584164776273	0	0
-69.422010675057038	120.24244965278784	0	0
-60.289864313404365	104.42510817225015	0	0
-69.519511422678704	69.519511422678676	0	0
-83.605448341102644	51.730590027363135	0	0
-51.730590027363156	83.60544834110263	0	0
-85.019661903475736	53.144803589736227	0	0
-53.144803589736256	85.019661903475736	0	0
-79.490806253233643	64.41785579584905	0	0
-64.417855795849064	79.490806253233643	0	0
-92.46548687362278	77.392536416238158	0	0
-105.42433286927397	90.351382411889347	0	0
-77.392536416238201	92.465486873622751	0	0
-90.351382411889404	105.42433286927394	0	0
-120.24244965278781	69.422010675057052	0	0
-104.42510817225013	60.289864313404394	0	0
-94.965418662061552	25.445907239382869	0	0
-98.269737171864008	2.9972809459031069	0	0
-86.602729287005744	46.539147144500873	0	0
-100.20158882444214	3.5149190361081466	0	0
-88.534580939583876	47.056785234705913	0	0
-101.04998548053179	16.042096449911107	0	0
-95.532902703144757	36.632129684682731	0	0
-118.77372881397295	20.791159162963165	0	0
-136.47584164776273	25.534426001101753	0	0
-113.25664603658592	41.381192397734786	0	0
-130.9587588703757	46.124459235873374	0	0
-138.84402135011413	2.1316282072803006e-014	0	0
-120.5797286268088	1.4210854715202004e-014	0	0
-94.965418662061552	-25.44590723938288	0	0
-86.602729287005729	-46.539147144500888	0	0
-98.269737171864008	-2.9972809459031104	0	0
-88.534580939583876	-47.05678523470592	0	0
-100.20158882444214	-3.5149190361081573	0	0
-95.532902703144728	-36.632129684682738	0	0
-101.04998548053177	-16.042096449911114	0	0
-113.25664603658592	-41.3811923977348	0	0
-130.95875887037568	-46.124459235873374	0	0
-118.77372881397297	-20.791159162963169	0	0
-136.47584164776273	-25.534426001101757	0	0
-120.24244965278783	-69.422010675057095	0	0
-104.42510817225013	-60.289864313404415	0	0
-69.519511422678733	-69.519511422678661	0	0
-51.730590027363178	-83.605448341102615	0	0
-83.605448341102672	-51.730590027363107	0	0
-53.14480358973627	-85.019661903475694	0	0
-85.019661903475765	-53.144803589736185	0	0
-64.417855795849093	-79.490806253233615	0	0
-79.490806253233671	-64.417855795849022	0	0
-77.392536416238215	-92.465486873622723	0	0
-90.351382411889418	-105.42433286927393	0	0
-92.465486873622808	-77.39253641623813	0	0
-105.424332869274	-90.351382411889318	0	0
-69.422010675057123	-120.24244965278776	0	0
-60.289864313404458	-104.42510817225011	0	0
-25.445907239382876	-94.965418662061552	0	0
-2.997280945903114	-98.269737171864008	0	0
-46.539147144500888	-86.602729287005729	0	0
-3.5149190361081537	-100.20158882444214	0	0
-47.056785234705927	-88.534580939583861	0	0
-16.042096449911114	-101.04998548053179	0	0
-36.632129684682738	-95.532902703144757	0	0
-20.791159162963172	-118.77372881397295	0	0
-25.53442600110176	-136.47584164776273	0	0
-41.381192397734793	-113.25664603658592	0	0
-46.124459235873381	-130.9587588703757	0	0
-2.8421709430404007e-014	-138.84402135011413	0	0
-2.1316282072803006e-014	-120.5797286268088	0	0
25.44590723938288	-94.965418662061552	0	0
46.539147144500888	-86.602729287005729	0	0
2.9972809459031104	-98.269737171864008	0	0
47.05678523470592	-88.534580939583876	0	0
3.5149190361081573	-100.20158882444214	0	0
36.632129684682738	-95.532902703144728	0	0
16.042096449911114	-101.04998548053177	0	0
41.3811923977348	-113.25664603658592	0	0
46.124459235873374	-130.95875887037568	0	0
20.791159162963169	-118.77372881397297	0	0
25.534426001101757	-136.47584164776273	0	0
69.422010675057095	-120.24244965278783	0	0
60.289864313404415	-104.42510817225013	0	0
69.519511422678661	-69.519511422678733	0	0
83.605448341102615	-51.730590027363178	0	0
51.730590027363107	-83.605448341102672	0	0
85.019661903475694	-53.14480358973627	0	0
53.144803589736185	-85.019661903475765	0	0
79.490806253233615	-64.417855795849093	0	0
64.417855795849022	-79.490806253233671	0	0
92.465486873622723	-77.392536416238215	0	0
105.42433286927393	-90.351382411889418	0	0
77.39253641623813	-92.465486873622808	0	0
90.351382411889318	-105.424332869274	0	0
173.8666487320323	-46.58742811845373	0	0
-173.8666487320323	46.587428118453751	0	0
83.669531570675474	-40.293122771952568	0	10
87.654833499556275	30.671752805096823	0	10
30.671752805096823	-87.654833499556275	0	10
85.399465482194358	-41.126215035954431	0	10
89.46716668862571	31.305915615706589	0	10
31.305915615706589	-89.46716668862571	0	10
40.293122771952568	83.669531570675474	0	10
-30.671752805096823	87.654833499556275	0	10
41.126215035954459	85.399465482194358	0	10
-31.305915615706589	89.46716668862571	0	10
-83.669531570675474	40.293122771952568	0	10
-87.654833499556332	-30.671752805096816	0	10
-85.399465482194358	41.126215035954459	0	10
-89.467166688625682	-31.305915615706535	0	10
-40.293122771952575	-83.669531570675474	0	10
-41.126215035954473	-85.399465482194358	0	10
0	270	0	0
0	-270	0	0
0	-273.85714285714289	0	0
0	273.85714285714289	0	0
0	-277.71428571428572	0	0
0	277.71428571428572	0	0
0	-281.57142857142861	0	0
0	281.57142857142861	0	0
0	-285.42857142857144	0	0
0	285.42857142857144	0	0
0	-289.28571428571428	0	0
0	289.28571428571428	0	0
0	-293.14285714285717	0	0
0	293.14285714285717	0	0
0	-297.00000000000006	0	0
0	297.00000000000006	0	0
[NumSegments] = 100
1	3	-1	0	0	0
2	4	-1	0	0	0
3	5	-1	0	0	0
4	6	-1	0	0	0
5	7	-1	0	0	0
7	8	-1	0	0	0
6	9	-1	0	0	0
9	10	-1	0	0	0
16	18	-1	0	0	0
17	19	-1	0	0	0
18	20	-1	0	0	0
19	21	-1	0	0	0
20	22	-1	0	0	0
22	23	-1	0	0	0
21	24	-1	0	0	0
24	25	-1	0	0	0
29	31	-1	0	0	0
30	32	-1	0	0	0
31	33	-1	0	0	0
32	34	-1	0	0	0
33	35	-1	0	0	0
35	36	-1	0	0	0
34	37	-1	0	0	0
37	38	-1	0	0	0
42	44	-1	0	0	0
43	45	-1	0	0	0
44	46	-1	0	0	0
45	47	-1	0	0	0
46	48	-1	0	0	0
48	49	-1	0	0	0
47	50	-1	0	0	0
50	51	-1	0	0	0
55	57	-1	0	0	0
56	58	-1	0	0	0
57	59	-1	0	0	0
58	60	-1	0	0	0
59	61	-1	0	0	0
61	62	-1	0	0	0
60	63	-1	0	0	0
63	64	-1	0	0	0
68	70	-1	0	0	0
69	71	-1	0	0	0
70	72	-1	0	0	0
71	73	-1	0	0	0
72	74	-1	0	0	0
74	75	-1	0	0	0
73	76	-1	0	0	0
76	77	-1	0	0	0
81	83	-1	0	0	0
82	84	-1	0	0	0
83	85	-1	0	0	0
84	86	-1	0	0	0
85	87	-1	0	0	0
87	88	-1	0	0	0
86	89	-1	0	0	0
89	90	-1	0	0	0
94	96	-1	0	0	0
95	97	-1	0	0	0
96	98	-1	0	0	0
97	99	-1	0	0	0
98	100	-1	0	0	0
100	101	-1	0	0	0
99	102	-1	0	0	0
102	103	-1	0	0	0
107	109	-1	0	0	0
108	110	-1	0	0	0
109	111	-1	0	0	0
110	112	-1	0	0	0
111	113	-1	0	0	0
113	114	-1	0	0	0
112	115	-1	0	0	0
115	116	-1	0	0	0
120	122	-1	0	0	0
121	123	-1	0	0	0
122	124	-1	0	0	0
123	125	-1	0	0	0
124	126	-1	0	0	0
126	127	-1	0	0	0
125	128	-1	0	0	0
128	129	-1	0	0	0
133	135	-1	0	0	0
134	136	-1	0	0	0
135	137	-1	0	0	0
136	138	-1	0	0	0
137	139	-1	0	0	0
139	140	-1	0	0	0
138	141	-1	0	0	0
141	142	-1	0	0	0
146	148	-1	0	0	0
147	149	-1	0	0	0
148	150	-1	0	0	0
149	151	-1	0	0	0
150	152	-1	0	0	0
152	153	-1	0	0	0
151	154	-1	0	0	0
154	155	-1	0	0	0
159	162	-1	0	0	10
160	163	-1	0	0	10
165	167	-1	0	0	10
169	171	-1	0	0	10
[NumArcSegments] = 118
0	1	13.252988866642804	1	0	0	0	1
2	0	13.252988866642804	1	0	0	0	1
8	11	10.635837898533552	1	0	0	0	1
12	10	10.635837898533552	1	0	0	0	1
7	13	10.635837898533552	1	0	0	0	1
14	9	10.635837898533552	1	0	0	0	1
15	16	13.252988866642804	1	0	0	0	1
17	15	13.252988866642804	1	0	0	0	1
23	26	10.635837898533552	1	0	0	0	1
11	25	10.635837898533552	1	0	0	0	1
22	27	10.635837898533552	1	0	0	0	1
13	24	10.635837898533552	1	0	0	0	1
28	29	13.252988866642804	1	0	0	0	1
30	28	13.252988866642804	1	0	0	0	1
36	39	10.635837898533552	1	0	0	0	1
26	38	10.635837898533552	1	0	0	0	1
35	40	10.635837898533552	1	0	0	0	1
27	37	10.635837898533552	1	0	0	0	1
41	42	13.252988866642804	1	0	0	0	1
43	41	13.252988866642804	1	0	0	0	1
49	52	10.635837898533552	1	0	0	0	1
39	51	10.635837898533552	1	0	0	0	1
48	53	10.635837898533552	1	0	0	0	1
40	50	10.635837898533552	1	0	0	0	1
54	55	13.252988866642804	1	0	0	0	1
56	54	13.252988866642804	1	0	0	0	1
62	65	10.635837898533552	1	0	0	0	1
52	64	10.635837898533552	1	0	0	0	1
61	66	10.635837898533552	1	0	0	0	1
53	63	10.635837898533552	1	0	0	0	1
67	68	13.252988866642804	1	0	0	0	1
69	67	13.252988866642804	1	0	0	0	1
75	78	10.635837898533552	1	0	0	0	1
65	77	10.635837898533552	1	0	0	0	1
74	79	10.635837898533552	1	0	0	0	1
66	76	10.635837898533552	1	0	0	0	1
80	81	13.252988866642804	1	0	0	0	1
82	80	13.252988866642804	1	0	0	0	1
88	91	10.635837898533552	1	0	0	0	1
78	90	10.635837898533552	1	0	0	0	1
87	92	10.635837898533552	1	0	0	0	1
79	89	10.635837898533552	1	0	0	0	1
93	94	13.252988866642804	1	0	0	0	1
95	93	13.252988866642804	1	0	0	0	1
101	104	10.635837898533552	1	0	0	0	1
91	103	10.635837898533552	1	0	0	0	1
100	105	10.635837898533552	1	0	0	0	1
92	102	10.635837898533552	1	0	0	0	1
106	107	13.252988866642804	1	0	0	0	1
108	106	13.252988866642804	1	0	0	0	1
114	117	10.635837898533552	1	0	0	0	1
104	116	10.635837898533552	1	0	0	0	1
113	118	10.635837898533552	1	0	0	0	1
105	115	10.635837898533552	1	0	0	0	1
119	120	13.252988866642804	1	0	0	0	1
121	119	13.252988866642804	1	0	0	0	1
127	130	10.635837898533552	1	0	0	0	1
117	129	10.635837898533552	1	0	0	0	1
126	131	10.635837898533552	1	0	0	0	1
118	128	10.635837898533552	1	0	0	0	1
132	133	13.252988866642804	1	0	0	0	1
134	132	13.252988866642804	1	0	0	0	1
140	143	10.635837898533552	1	0	0	0	1
130	142	10.635837898533552	1	0	0	0	1
139	144	10.635837898533552	1	0	0	0	1
131	141	10.635837898533552	1	0	0	0	1
145	146	13.252988866642804	1	0	0	0	1
147	145	13.252988866642804	1	0	0	0	1
153	12	10.635837898533552	1	0	0	0	1
143	155	10.635837898533552	1	0	0	0	1
152	14	10.635837898533552	1	0	0	0	1
144	154	10.635837898533552	1	0	0	0	1
156	157	180	1	0	0	0	1
157	156	180	1	0	0	0	1
1	17	3.494022266714389	1	0	0	0	1
16	30	3.4940222667143788	1	0	0	0	1
29	43	3.4940222667143921	1	0	0	0	1
42	56	3.4940222667143819	1	0	0	0	1
55	69	3.4940222667144099	1	0	0	0	1
68	82	3.4940222667143797	1	0	0	0	1
81	95	3.4940222667144001	1	0	0	0	1
94	108	3.4940222667143428	1	0	0	0	1
107	121	3.4940222667144081	1	0	0	0	1
120	134	3.4940222667144036	1	0	0	0	1
133	147	3.4940222667143428	1	0	0	0	1
146	2	3.4940222667144183	1	0	0	0	1
158	159	45	1	0	0	10	1
160	158	45	1	0	0	10	1
161	162	45	1	0	0	10	1
163	161	45	1	0	0	10	1
164	165	45	1	0	0	10	1
159	164	45	1	0	0	10	1
166	167	45	1	0	0	10	1
162	166	45	1	0	0	10	1
168	169	45	1	0	0	10	1
165	168	45	1	0	0	10	1
170	171	45	1	0	0	10	1
167	170	45	1	0	0	10	1
172	160	45	1	0	0	10	1
169	172	45	1	0	0	10	1
173	163	45	1	0	0	10	1
171	173	45	1	0	0	10	1
174	175	180	1	0	0	0	1
175	174	180	1	0	0	0	1
176	177	180	1	0	0	0	1
177	176	180	1	0	0	0	1
178	179	180	1	0	0	0	1
179	178	180	1	0	0	0	1
180	181	180	1	0	0	0	1
181	180	180	1	0	0	0	1
182	183	180	1	0	0	0	1
183	182	180	1	0	0	0	1
184	185	180	1	0	0	0	1
185	184	180	1	0	0	0	1
186	187	180	1	0	0	0	1
187	186	180	1	0	0	0	1
188	189	180	1	0	0	0	1
189	188	180	1	0	0	0	1
[NumHoles] = 0
[NumBlockLabels] = 39
111.44758226515616	3.5527136788005009e-015	2	-1	1	0	2	-371	0
96.516437431981302	55.723791132578071	2	-1	3	0	2	371	0
55.723791132578071	96.516437431981316	2	-1	2	0	2	-371	0
1.0658141036401503e-014	111.44758226515616	2	-1	1	0	2	371	0
-55.723791132578071	96.516437431981302	2	-1	3	0	2	-371	0
-96.516437431981302	55.7237911325781	2	-1	2	0	2	371	0
-111.44758226515616	4.2632564145606011e-014	2	-1	1	0	2	-371	0
-96.516437431981331	-55.723791132578036	2	-1	3	0	2	371	0
-55.723791132578057	-96.516437431981316	2	-1	2	0	2	-371	0
4.2632564145606011e-014	-111.44758226515617	2	-1	1	0	2	371	0
55.723791132578071	-96.516437431981331	2	-1	3	0	2	-371	0
96.516437431981316	-55.723791132578071	2	-1	2	0	2	371	0
129.71187498846149	0	2	-1	1	0	2	-371	0
112.33377891251901	64.855937494230744	2	-1	3	0	2	371	0
64.855937494230744	112.33377891251899	2	-1	2	0	2	-371	0
1.4210854715202004e-014	129.71187498846149	2	-1	1	0	2	371	0
-64.855937494230744	112.33377891251901	2	-1	3	0	2	-371	0
-112.33377891251897	64.855937494230773	2	-1	2	0	2	371	0
-129.71187498846149	5.6843418860808015e-014	2	-1	1	0	2	-371	0
-112.33377891251902	-64.855937494230673	2	-1	3	0	2	371	0
-64.85593749423073	-112.33377891251899	2	-1	2	0	2	-371	0
5.6843418860808015e-014	-129.71187498846149	2	-1	1	0	2	371	0
64.855937494230716	-112.33377891251901	2	-1	3	0	2	-371	0
112.33377891251899	-64.855937494230744	2	-1	2	0	2	371	0
153.98983738996915	-41.261452571242138	4	-1	0	0	1	1	0
84.53449852643493	-40.709668903953485	3	-1	0	334.28571428571433	11	1	0
40.709668903953521	84.534498526434916	3	-1	0	604.28571428571422	12	1	0
-84.534498526434916	40.709668903953521	3	-1	0	514.28571428571433	13	1	0
-40.709668903953499	-84.53449852643493	3	-1	0	784.28571428571377	14	1	0
41.834765785337737	-20.146561385976284	4	-1	0	0	10	1	0
96.550845797010254	0	1	-1	0	0	0	1	0
180.5	0	1	-1	0	0	0	1	0
266.70354017822132	53.050632565385733	5	-1	0	0	0	1	0
254.792776787577	105.53862374011511	6	-1	0	0	0	1	0
232.5145380117475	155.36124730512449	7	-1	0	0	0	1	0
200.46477246638625	200.46477246638619	8	-1	0	0	0	1	0
159.64707481699	238.92873216379564	9	-1	0	0	0	1	0
111.4428824108908	269.04691814632258	10	-1	0	0	0	1	0
57.565580017758954	289.4017138104104	11	-1	0	0	0	1	0
