[Format]      =  4.0
[Frequency]   =  0
[Precision]   =  1e-008
[MinAngle]    =  30
[DoSmartMesh] =  1
[Depth]       =  1
[LengthUnits] =  millimeters
[ProblemType] =  planar
[Coordinates] =  cartesian
[ACSolver]    =  0
[PrevType]    =  0
[PrevSoln]    =  ""
[Comment]     =  "Add comments here."
[PointProps]   = 0
[BdryProps]   = 0
[BlockProps]  = 11
  <BeginBlock>
    <BlockName> = "Air"
    <Mu_x> = 1
    <Mu_y> = 1
    <H_c> = 0
    <H_cAngle> = 0
    <J_re> = 0
    <J_im> = 0
    <Sigma> = 0
    <d_lam> = 0
    <Phi_h> = 0
    <Phi_hx> = 0
    <Phi_hy> = 0
    <LamType> = 0
    <LamFill> = 1
    <NStrands> = 0
    <WireD> = 0
    <BHPoints> = 0
  <EndBlock>
  <BeginBlock>
    <BlockName> = "18 AWG"
    <Mu_x> = 1
    <Mu_y> = 1
    <H_c> = 0
    <H_cAngle> = 0
    <J_re> = 0
    <J_im> = 0
    <Sigma> = 58
    <d_lam> = 0
    <Phi_h> = 0
    <Phi_hx> = 0
    <Phi_hy> = 0
    <LamType> = 3
    <LamFill> = 1
    <NStrands> = 1
    <WireD> = 1.0239652968433499
    <BHPoints> = 0
  <EndBlock>
  <BeginBlock>
    <BlockName> = "N40"
    <Mu_x> = 1.044
    <Mu_y> = 1.044
    <H_c> = 963000
    <H_cAngle> = 0
    <J_re> = 0
    <J_im> = 0
    <Sigma> = 555000
    <d_lam> = 0
    <Phi_h> = 0
    <Phi_hx> = 0
    <Phi_hy> = 0
    <LamType> = 0
    <LamFill> = 1
    <NStrands> = 0
    <WireD> = 0
    <BHPoints> = 0
  <EndBlock>
  <BeginBlock>
    <BlockName> = "M19_29Ga"
    <Mu_x> = 0
    <Mu_y> = 0
    <H_c> = 0
    <H_cAngle> = 0
    <J_re> = 0
    <J_im> = 0
    <Sigma> = 0
    <d_lam> = 0.35999999999999999
    <Phi_h> = 0
    <Phi_hx> = 0
    <Phi_hy> = 0
    <LamType> = 0
    <LamFill> = 0.91000000000000003
    <NStrands> = 0
    <WireD> = 0
    <BHPoints> = 187
      0	0
      0.51870000000000005	49
      0.66139999999999999	63
      0.72040000000000004	69
      0.76580000000000004	74
      0.80400000000000005	78
      0.83760000000000001	82
      0.86809999999999998	86
      0.89610000000000001	90
      0.92210000000000003	94
      0.9466	98
      0.96970000000000001	102
      0.99170000000000003	106
      1.0127999999999999	110
      1.0328999999999999	114
      1.0524	119
      1.0710999999999999	124
      1.0891999999999999	128
      1.1068	134
      1.1237999999999999	139
      1.1404000000000001	145
      1.1565000000000001	151
      1.1722999999999999	157
      1.1877	164
      1.2027000000000001	172
      1.2174	180
      1.2318	189
      1.2459	199
      1.2598	209
      1.2734000000000001	221
      1.2867	234
      1.2999000000000001	248
      1.3128	264
      1.3254999999999999	282
      1.3380000000000001	302
      1.3503000000000001	324
      1.3625	349
      1.3744000000000001	377
      1.3862000000000001	409
      1.3978999999999999	446
      1.4094	486
      1.4207000000000001	532
      1.4319	584
      1.4430000000000001	641
      1.4539	705
      1.4646999999999999	776
      1.4754	855
      1.486	942
      1.4964999999999999	1037
      1.5067999999999999	1141
      1.5169999999999999	1256
      1.5271999999999999	1380
      1.5371999999999999	1515
      1.5471999999999999	1661
      1.5569999999999999	1818
      1.5667	1987
      1.5764	2167
      1.5860000000000001	2357
      1.5954999999999999	2558
      1.6049	2769
      1.6142000000000001	2990
      1.6234	3220
      1.6326000000000001	3459
      1.6416999999999999	3706
      1.6507000000000001	3961
      1.6597	4224
      1.6685000000000001	4495
      1.6773	4773
      1.6860999999999999	5058
      1.6948000000000001	5352
      1.7034	5653
      1.7119	5962
      1.7203999999999999	6280
      1.7289000000000001	6606
      1.7372000000000001	6942
      1.7456	7286
      1.7538	7641
      1.762	8007
      1.7702	8384
      1.7783	8773
      1.7863	9175
      1.7943	9590
      1.8023	10020
      1.8102	10466
      1.8180000000000001	10929
      1.8258000000000001	11409
      1.8335999999999999	11909
      1.8412999999999999	12430
      1.849	12972
      1.8566	13539
      1.8642000000000001	14132
      1.8716999999999999	14752
      1.8792	15402
      1.8867	16085
      1.8940999999999999	16802
      1.9014	17557
      1.9088000000000001	18353
      1.9160999999999999	19192
      1.9233	20078
      1.9306000000000001	21016
      1.9377	22008
      1.9449000000000001	23059
      1.952	24174
      1.9591000000000001	25357
      1.9661	26614
      1.9731000000000001	27948
      1.9801	29367
      1.9870000000000001	30873
      1.994	32474
      2.0007999999999999	34174
      2.0076999999999998	35978
      2.0145	37891
      2.0213000000000001	39915
      2.028	42056
      2.0348000000000002	44315
      2.0413999999999999	46694
      2.0480999999999998	49194
      2.0547	51814
      2.0613999999999999	54555
      2.0678999999999998	57412
      2.0745	60385
      2.081	63468
      2.0874999999999999	66657
      2.0939999999999999	69947
      2.1004	73333
      2.1067999999999998	76809
      2.1132	80369
      2.1196000000000002	84007
      2.1259000000000001	87716
      2.1322000000000001	91492
      2.1385000000000001	95328
      2.1448	99220
      2.1509999999999998	103162
      2.1573000000000002	107149
      2.1634000000000002	111177
      2.1696	115242
      2.1758000000000002	119339
      2.1819000000000002	123466
      2.1880000000000002	127619
      2.1941000000000002	131794
      2.2000999999999999	135990
      2.2061999999999999	140203
      2.2122000000000002	144432
      2.2181999999999999	148673
      2.2242000000000002	152926
      2.2301000000000002	157188
      2.2360000000000002	161458
      2.242	165734
      2.2477999999999998	170015
      2.2536999999999998	174300
      2.2595999999999998	178587
      2.2654000000000001	182876
      2.2711999999999999	187166
      2.2770000000000001	191455
      2.2827999999999999	195743
      2.2885	200030
      2.2942999999999998	204314
      2.2999999999999998	208595
      2.3056999999999999	212872
      2.3113999999999999	217146
      2.3170000000000002	221415
      2.3227000000000002	225679
      2.3283	229938
      2.3338999999999999	234191
      2.3395000000000001	238438
      2.3451	242679
      2.3506999999999998	246914
      2.3561999999999999	251142
      2.3616999999999999	255362
      2.3672	259576
      2.3727	263783
      2.3782000000000001	267982
      2.3837000000000002	272173
      2.3891	276357
      2.3944999999999999	280533
      2.3999999999999999	284701
      2.4053	288860
      2.4106999999999998	293012
      2.4161000000000001	297155
      2.4215	301290
      2.4268000000000001	305417
      2.4321000000000002	309536
      2.4373999999999998	313646
      2.4426999999999999	317747
      2.448	321840
      2.4533	325924
      2.4584999999999999	330000
  <EndBlock>
  <BeginBlock>
    <BlockName> = "u1"
    <Mu_x> = 0.37737277525645235
    <Mu_y> = 0.37737277525645235
    <H_c> = 0
    <H_cAngle> = 0
    <J_re> = 0
    <J_im> = 0
    <Sigma> = 0
    <d_lam> = 0
    <Phi_h> = 0
    <Phi_hx> = 0
    <Phi_hy> = 0
    <LamType> = 0
    <LamFill> = 1
    <NStrands> = 0
    <WireD> = 0
    <BHPoints> = 0
  <EndBlock>
  <BeginBlock>
    <BlockName> = "u2"
    <Mu_x> = 7.7200304346442108
    <Mu_y> = 7.7200304346442108
    <H_c> = 0
    <H_cAngle> = 0
    <J_re> = 0
    <J_im> = 0
    <Sigma> = 0
    <d_lam> = 0
    <Phi_h> = 0
    <Phi_hx> = 0
    <Phi_hy> = 0
    <LamType> = 0
    <LamFill> = 1
    <NStrands> = 0
    <WireD> = 0
    <BHPoints> = 0
  <EndBlock>
  <BeginBlock>
    <BlockName> = "u3"
    <Mu_x> = 0.069449425895143593
    <Mu_y> = 0.069449425895143593
    <H_c> = 0
    <H_cAngle> = 0
    <J_re> = 0
    <J_im> = 0
    <Sigma> = 0
    <d_lam> = 0
    <Phi_h> = 0
    <Phi_hx> = 0
    <Phi_hy> = 0
    <LamType> = 0
    <LamFill> = 1
    <NStrands> = 0
    <WireD> = 0
    <BHPoints> = 0
  <EndBlock>
  <BeginBlock>
    <BlockName> = "u4"
    <Mu_x> = 23.31949550539958
    <Mu_y> = 23.31949550539958
    <H_c> = 0
    <H_cAngle> = 0
    <J_re> = 0
    <J_im> = 0
    <Sigma> = 0
    <d_lam> = 0
    <Phi_h> = 0
    <Phi_hx> = 0
    <Phi_hy> = 0
    <LamType> = 0
    <LamFill> = 1
    <NStrands> = 0
    <WireD> = 0
    <BHPoints> = 0
  <EndBlock>
  <BeginBlock>
    <BlockName> = "u5"
    <Mu_x> = 0.026883543752277105
    <Mu_y> = 0.026883543752277105
    <H_c> = 0
    <H_cAngle> = 0
    <J_re> = 0
    <J_im> = 0
    <Sigma> = 0
    <d_lam> = 0
    <Phi_h> = 0
    <Phi_hx> = 0
    <Phi_hy> = 0
    <LamType> = 0
    <LamFill> = 1
    <NStrands> = 0
    <WireD> = 0
    <BHPoints> = 0
  <EndBlock>
  <BeginBlock>
    <BlockName> = "u6"
    <Mu_x> = 63.839650875508823
    <Mu_y> = 63.839650875508823
    <H_c> = 0
    <H_cAngle> = 0
    <J_re> = 0
    <J_im> = 0
    <Sigma> = 0
    <d_lam> = 0
    <Phi_h> = 0
    <Phi_hx> = 0
    <Phi_hy> = 0
    <LamType> = 0
    <LamFill> = 1
    <NStrands> = 0
    <WireD> = 0
    <BHPoints> = 0
  <EndBlock>
  <BeginBlock>
    <BlockName> = "u7"
    <Mu_x> = 0.0070407582729502555
    <Mu_y> = 0.0070407582729502555
    <H_c> = 0
    <H_cAngle> = 0
    <J_re> = 0
    <J_im> = 0
    <Sigma> = 0
    <d_lam> = 0
    <Phi_h> = 0
    <Phi_hx> = 0
    <Phi_hy> = 0
    <LamType> = 0
    <LamFill> = 1
    <NStrands> = 0
    <WireD> = 0
    <BHPoints> = 0
  <EndBlock>
[CircuitProps]  = 3
  <BeginCircuit>
    <CircuitName> = "U"
    <TotalAmps_re> = 3.628773615858039
    <TotalAmps_im> = 0
    <CircuitType> = 1
  <EndCircuit>
  <BeginCircuit>
    <CircuitName> = "V"
    <TotalAmps_re> = -5.755095275104205
    <TotalAmps_im> = -0
    <CircuitType> = 1
  <EndCircuit>
  <BeginCircuit>
    <CircuitName> = "W"
    <TotalAmps_re> = 2.1263216592461633
    <TotalAmps_im> = 0
    <CircuitType> = 1
  <EndCircuit>
[NumPoints] = 190
100.08198967637608	-26.816888310684931	0	0
103.51388385865023	-4.519513773390873	0	0
91.905409952678482	-47.842928188814952	0	0
105.44573551122838	-5.0371518635959127	0	0
93.837261605256629	-48.360566279019991	0	0
106.59990538036547	-14.727875921093647	0	0
99.682164060960787	-40.545237998730492	0	0
117.48856109837665	-17.645482427395272	0	0
128.36395708862469	-20.559536000350896	0	0
110.57081977897197	-43.462844505032116	0	0
121.44621576921999	-46.37689807798774	0	0
130	-7.1054273576010019e-015	0	0
112.58330249197704	-65	0	0
118.80625000000002	-3.5527136788005009e-015	0	0
102.88923062836498	-59.403125000000003	0	0
100.0819896763761	26.816888310684924	0	0
91.905409952678497	47.842928188814945	0	0
103.51388385865022	4.519513773390873	0	0
93.837261605256629	48.360566279019977	0	0
105.44573551122836	5.0371518635959198	0	0
99.682164060960787	40.545237998730492	0	0
106.59990538036547	14.727875921093645	0	0
110.57081977897197	43.462844505032102	0	0
121.44621576921999	46.376898077987732	0	0
117.48856109837665	17.645482427395269	0	0
128.36395708862466	20.559536000350882	0	0
112.58330249197704	64.999999999999986	0	0
102.88923062836497	59.403124999999996	0	0
73.265101365691166	73.265101365691152	0	0
55.670955669835294	87.385896179287599	0	0
87.385896179287641	55.67095566983528	0	0
57.085169232208379	88.800109741660691	0	0
88.800109741660719	57.085169232208365	0	0
66.054667381634985	84.954288139867117	0	0
84.954288139867145	66.054667381634971	0	0
74.025716593344541	92.925337351576687	0	0
81.987059010636926	100.88667976886907	0	0
92.925337351576701	74.025716593344526	0	0
100.88667976886909	81.987059010636926	0	0
65.000000000000028	112.58330249197702	0	0
59.403125000000024	102.88923062836498	0	0
26.816888310684938	100.08198967637608	0	0
4.5195137733908801	103.51388385865022	0	0
47.842928188814952	91.905409952678482	0	0
5.0371518635959198	105.44573551122838	0	0
48.360566279019991	93.837261605256629	0	0
14.727875921093654	106.59990538036547	0	0
40.545237998730499	99.682164060960787	0	0
17.64548242739528	117.48856109837665	0	0
20.559536000350903	128.36395708862466	0	0
43.462844505032123	110.57081977897197	0	0
46.376898077987747	121.44621576921999	0	0
7.1054273576010019e-015	130	0	0
1.0658141036401503e-014	118.80625000000002	0	0
-26.816888310684909	100.0819896763761	0	0
-47.84292818881493	91.905409952678482	0	0
-4.5195137733908588	103.51388385865022	0	0
-48.360566279019963	93.837261605256629	0	0
-5.0371518635959056	105.44573551122836	0	0
-40.545237998730478	99.682164060960787	0	0
-14.727875921093631	106.59990538036547	0	0
-43.462844505032088	110.57081977897197	0	0
-46.376898077987732	121.44621576921999	0	0
-17.645482427395248	117.48856109837664	0	0
-20.559536000350867	128.36395708862466	0	0
-64.999999999999972	112.58330249197704	0	0
-59.403124999999974	102.88923062836498	0	0
-73.265101365691166	73.265101365691152	0	0
-87.385896179287613	55.670955669835266	0	0
-55.670955669835287	87.385896179287613	0	0
-88.800109741660705	57.085169232208372	0	0
-57.085169232208386	88.800109741660705	0	0
-84.954288139867145	66.054667381634971	0	0
-66.054667381634999	84.954288139867145	0	0
-92.925337351576687	74.025716593344526	0	0
-100.8866797688691	81.987059010636898	0	0
-74.025716593344541	92.925337351576673	0	0
-81.987059010636941	100.88667976886907	0	0
-112.58330249197704	65	0	0
-102.88923062836498	59.403125000000003	0	0
-100.08198967637608	26.816888310684941	0	0
-103.51388385865022	4.5195137733908837	0	0
-91.905409952678482	47.842928188814959	0	0
-105.44573551122836	5.0371518635959269	0	0
-93.837261605256629	48.360566279020006	0	0
-106.59990538036547	14.727875921093659	0	0
-99.682164060960787	40.545237998730506	0	0
-117.48856109837665	17.645482427395287	0	0
-128.36395708862466	20.55953600035091	0	0
-110.57081977897197	43.46284450503213	0	0
-121.44621576921999	46.376898077987761	0	0
-130	1.4210854715202004e-014	0	0
-118.80625000000002	1.4210854715202004e-014	0	0
-100.08198967637608	-26.816888310684948	0	0
-91.905409952678497	-47.842928188814973	0	0
-103.51388385865023	-4.5195137733908943	0	0
-93.837261605256629	-48.360566279020013	0	0
-105.44573551122835	-5.0371518635959376	0	0
-99.682164060960787	-40.545237998730514	0	0
-106.59990538036547	-14.72787592109367	0	0
-110.57081977897195	-43.462844505032137	0	0
-121.44621576921998	-46.376898077987747	0	0
-117.48856109837665	-17.645482427395294	0	0
-128.36395708862466	-20.559536000350914	0	0
-112.58330249197701	-65.000000000000014	0	0
-102.88923062836498	-59.403125000000024	0	0
-73.26510136569118	-73.265101365691123	0	0
-55.670955669835323	-87.385896179287585	0	0
-87.385896179287641	-55.670955669835237	0	0
-57.085169232208415	-88.800109741660677	0	0
-88.800109741660734	-57.08516923220833	0	0
-66.054667381635014	-84.954288139867117	0	0
-84.954288139867174	-66.054667381634928	0	0
-74.025716593344583	-92.925337351576673	0	0
-81.987059010636983	-100.88667976886904	0	0
-92.925337351576729	-74.025716593344498	0	0
-100.88667976886912	-81.98705901063687	0	0
-65.000000000000057	-112.58330249197699	0	0
-59.40312500000006	-102.88923062836496	0	0
-26.816888310684948	-100.08198967637608	0	0
-4.5195137733908908	-103.51388385865022	0	0
-47.842928188814966	-91.905409952678482	0	0
-5.0371518635959305	-105.44573551122836	0	0
-48.360566279020006	-93.837261605256629	0	0
-14.727875921093665	-106.59990538036547	0	0
-40.545237998730514	-99.682164060960787	0	0
-17.64548242739529	-117.48856109837665	0	0
-20.559536000350917	-128.36395708862466	0	0
-43.462844505032137	-110.57081977897197	0	0
-46.376898077987761	-121.44621576921999	0	0
-2.1316282072803006e-014	-130	0	0
-2.1316282072803006e-014	-118.80625000000002	0	0
26.816888310684948	-100.08198967637608	0	0
47.842928188814973	-91.905409952678497	0	0
4.5195137733908943	-103.51388385865023	0	0
48.360566279020013	-93.837261605256629	0	0
5.0371518635959376	-105.44573551122835	0	0
40.545237998730514	-99.682164060960787	0	0
14.72787592109367	-106.59990538036547	0	0
43.462844505032137	-110.57081977897195	0	0
46.376898077987747	-121.44621576921998	0	0
17.645482427395294	-117.48856109837665	0	0
20.559536000350914	-128.36395708862466	0	0
65.000000000000014	-112.58330249197701	0	0
59.403125000000024	-102.88923062836498	0	0
73.265101365691123	-73.26510136569118	0	0
87.385896179287585	-55.670955669835323	0	0
55.670955669835237	-87.385896179287641	0	0
88.800109741660677	-57.085169232208415	0	0
57.08516923220833	-88.800109741660734	0	0
84.954288139867117	-66.054667381635014	0	0
66.054667381634928	-84.954288139867174	0	0
92.925337351576673	-74.025716593344583	0	0
100.88667976886904	-81.987059010636983	0	0
74.025716593344498	-92.925337351576729	0	0
81.98705901063687	-100.88667976886912	0	0
173.8666487320323	-46.58742811845373	0	0
-173.8666487320323	46.587428118453751	0	0
88.515596330186384	-42.626864561230576	0	10
92.731723397812544	32.448233413879187	0	10
32.448233413879201	-92.731723397812544	0	10
92.000183523685806	-44.304953310641686	0	10
96.382286566113208	33.725620713896973	0	10
33.72562071389698	-96.382286566113194	0	10
42.626864561230597	88.515596330186369	0	10
-32.448233413879187	92.731723397812544	0	10
44.304953310641707	92.000183523685791	0	10
-33.725620713896973	96.382286566113208	0	10
-88.515596330186369	42.626864561230597	0	10
-92.731723397812559	-32.44823341387918	0	10
-92.000183523685777	44.304953310641721	0	10
-96.382286566113208	-33.725620713896973	0	10
-42.626864561230626	-88.515596330186384	0	10
-44.304953310641707	-92.000183523685763	0	10
0	270	0	0
0	-270	0	0
0	-273.85714285714289	0	0
0	273.85714285714289	0	0
0	-277.71428571428572	0	0
0	277.71428571428572	0	0
0	-281.57142857142861	0	0
0	281.57142857142861	0	0
0	-285.42857142857144	0	0
0	285.42857142857144	0	0
0	-289.28571428571428	0	0
0	289.28571428571428	0	0
0	-293.14285714285717	0	0
0	293.14285714285717	0	0
0	-297.00000000000006	0	0
0	297.00000000000006	0	0
[NumSegments] = 100
1	3	-1	0	0	0
2	4	-1	0	0	0
3	5	-1	0	0	0
4	6	-1	0	0	0
5	7	-1	0	0	0
7	8	-1	0	0	0
6	9	-1	0	0	0
9	10	-1	0	0	0
16	18	-1	0	0	0
17	19	-1	0	0	0
18	20	-1	0	0	0
19	21	-1	0	0	0
20	22	-1	0	0	0
22	23	-1	0	0	0
21	24	-1	0	0	0
24	25	-1	0	0	0
29	31	-1	0	0	0
30	32	-1	0	0	0
31	33	-1	0	0	0
32	34	-1	0	0	0
33	35	-1	0	0	0
35	36	-1	0	0	0
34	37	-1	0	0	0
37	38	-1	0	0	0
42	44	-1	0	0	0
43	45	-1	0	0	0
44	46	-1	0	0	0
45	47	-1	0	0	0
46	48	-1	0	0	0
48	49	-1	0	0	0
47	50	-1	0	0	0
50	51	-1	0	0	0
55	57	-1	0	0	0
56	58	-1	0	0	0
57	59	-1	0	0	0
58	60	-1	0	0	0
59	61	-1	0	0	0
61	62	-1	0	0	0
60	63	-1	0	0	0
63	64	-1	0	0	0
68	70	-1	0	0	0
69	71	-1	0	0	0
70	72	-1	0	0	0
71	73	-1	0	0	0
72	74	-1	0	0	0
74	75	-1	0	0	0
73	76	-1	0	0	0
76	77	-1	0	0	0
81	83	-1	0	0	0
82	84	-1	0	0	0
83	85	-1	0	0	0
84	86	-1	0	0	0
85	87	-1	0	0	0
87	88	-1	0	0	0
86	89	-1	0	0	0
89	90	-1	0	0	0
94	96	-1	0	0	0
95	97	-1	0	0	0
96	98	-1	0	0	0
97	99	-1	0	0	0
98	100	-1	0	0	0
100	101	-1	0	0	0
99	102	-1	0	0	0
102	103	-1	0	0	0
107	109	-1	0	0	0
108	110	-1	0	0	0
109	111	-1	0	0	0
110	112	-1	0	0	0
111	113	-1	0	0	0
113	114	-1	0	0	0
112	115	-1	0	0	0
115	116	-1	0	0	0
120	122	-1	0	0	0
121	123	-1	0	0	0
122	124	-1	0	0	0
123	125	-1	0	0	0
124	126	-1	0	0	0
126	127	-1	0	0	0
125	128	-1	0	0	0
128	129	-1	0	0	0
133	135	-1	0	0	0
134	136	-1	0	0	0
135	137	-1	0	0	0
136	138	-1	0	0	0
137	139	-1	0	0	0
139	140	-1	0	0	0
138	141	-1	0	0	0
141	142	-1	0	0	0
146	148	-1	0	0	0
147	149	-1	0	0	0
148	150	-1	0	0	0
149	151	-1	0	0	0
150	152	-1	0	0	0
152	153	-1	0	0	0
151	154	-1	0	0	0
154	155	-1	0	0	0
159	162	-1	0	0	10
160	163	-1	0	0	10
165	167	-1	0	0	10
169	171	-1	0	0	10
[NumArcSegments] = 118
0	1	12.5	1	0	0	0	1
2	0	12.5	1	0	0	0	1
8	11	9.1909221831528889	1	0	0	0	1
12	10	9.1909221831528889	1	0	0	0	1
7	13	9.1909221831528889	1	0	0	0	1
14	9	9.1909221831528889	1	0	0	0	1
15	16	12.5	1	0	0	0	1
17	15	12.5	1	0	0	0	1
23	26	9.1909221831528889	1	0	0	0	1
11	25	9.1909221831528889	1	0	0	0	1
22	27	9.1909221831528889	1	0	0	0	1
13	24	9.1909221831528889	1	0	0	0	1
28	29	12.5	1	0	0	0	1
30	28	12.5	1	0	0	0	1
36	39	9.1909221831528889	1	0	0	0	1
26	38	9.1909221831528889	1	0	0	0	1
35	40	9.1909221831528889	1	0	0	0	1
27	37	9.1909221831528889	1	0	0	0	1
41	42	12.5	1	0	0	0	1
43	41	12.5	1	0	0	0	1
49	52	9.1909221831528889	1	0	0	0	1
39	51	9.1909221831528889	1	0	0	0	1
48	53	9.1909221831528889	1	0	0	0	1
40	50	9.1909221831528889	1	0	0	0	1
54	55	12.5	1	0	0	0	1
56	54	12.5	1	0	0	0	1
62	65	9.1909221831528889	1	0	0	0	1
52	64	9.1909221831528889	1	0	0	0	1
61	66	9.1909221831528889	1	0	0	0	1
53	63	9.1909221831528889	1	0	0	0	1
67	68	12.5	1	0	0	0	1
69	67	12.5	1	0	0	0	1
75	78	9.1909221831528889	1	0	0	0	1
65	77	9.1909221831528889	1	0	0	0	1
74	79	9.1909221831528889	1	0	0	0	1
66	76	9.1909221831528889	1	0	0	0	1
80	81	12.5	1	0	0	0	1
82	80	12.5	1	0	0	0	1
88	91	9.1909221831528889	1	0	0	0	1
78	90	9.1909221831528889	1	0	0	0	1
87	92	9.1909221831528889	1	0	0	0	1
79	89	9.1909221831528889	1	0	0	0	1
93	94	12.5	1	0	0	0	1
95	93	12.5	1	0	0	0	1
101	104	9.1909221831528889	1	0	0	0	1
91	103	9.1909221831528889	1	0	0	0	1
100	105	9.1909221831528889	1	0	0	0	1
92	102	9.1909221831528889	1	0	0	0	1
106	107	12.5	1	0	0	0	1
108	106	12.5	1	0	0	0	1
114	117	9.1909221831528889	1	0	0	0	1
104	116	9.1909221831528889	1	0	0	0	1
113	118	9.1909221831528889	1	0	0	0	1
105	115	9.1909221831528889	1	0	0	0	1
119	120	12.5	1	0	0	0	1
121	119	12.5	1	0	0	0	1
127	130	9.1909221831528889	1	0	0	0	1
117	129	9.1909221831528889	1	0	0	0	1
126	131	9.1909221831528889	1	0	0	0	1
118	128	9.1909221831528889	1	0	0	0	1
132	133	12.5	1	0	0	0	1
134	132	12.5	1	0	0	0	1
140	143	9.1909221831528889	1	0	0	0	1
130	142	9.1909221831528889	1	0	0	0	1
139	144	9.1909221831528889	1	0	0	0	1
131	141	9.1909221831528889	1	0	0	0	1
145	146	12.5	1	0	0	0	1
147	145	12.5	1	0	0	0	1
153	12	9.1909221831528889	1	0	0	0	1
143	155	9.1909221831528889	1	0	0	0	1
152	14	9.1909221831528889	1	0	0	0	1
144	154	9.1909221831528889	1	0	0	0	1
156	157	180	1	0	0	0	1
157	156	180	1	0	0	0	1
1	17	5	1	0	0	0	1
16	30	4.9999999999999982	1	0	0	0	1
29	43	5.000000000000008	1	0	0	0	1
42	56	4.9999999999999938	1	0	0	0	1
55	69	5.0000000000000204	1	0	0	0	1
68	82	4.9999999999999885	1	0	0	0	1
81	95	5.000000000000016	1	0	0	0	1
94	108	4.9999999999999707	1	0	0	0	1
107	121	5.0000000000000195	1	0	0	0	1
120	134	5.0000000000000195	1	0	0	0	1
133	147	4.9999999999999707	1	0	0	0	1
146	2	5.0000000000000293	1	0	0	0	1
158	159	45	1	0	0	10	1
160	158	45	1	0	0	10	1
161	162	45	1	0	0	10	1
163	161	45	1	0	0	10	1
164	165	45	1	0	0	10	1
159	164	45	1	0	0	10	1
166	167	45	1	0	0	10	1
162	166	45	1	0	0	10	1
168	169	45	1	0	0	10	1
165	168	45	1	0	0	10	1
170	171	45	1	0	0	10	1
167	170	45	1	0	0	10	1
172	160	45	1	0	0	10	1
169	172	45	1	0	0	10	1
173	163	45	1	0	0	10	1
171	173	45	1	0	0	10	1
174	175	180	1	0	0	0	1
175	174	180	1	0	0	0	1
176	177	180	1	0	0	0	1
177	176	180	1	0	0	0	1
178	179	180	1	0	0	0	1
179	178	180	1	0	0	0	1
180	181	180	1	0	0	0	1
181	180	180	1	0	0	0	1
182	183	180	1	0	0	0	1
183	182	180	1	0	0	0	1
184	185	180	1	0	0	0	1
185	184	180	1	0	0	0	1
186	187	180	1	0	0	0	1
187	186	180	1	0	0	0	1
188	189	180	1	0	0	0	1
189	188	180	1	0	0	0	1
[NumHoles] = 0
[NumBlockLabels] = 39
113.20937499999999	0	2	-1	1	0	2	-193	0
98.042194696558937	56.604687499999997	2	-1	3	0	2	193	0
56.60468749999999	98.042194696558937	2	-1	2	0	2	-193	0
1.0658141036401503e-014	113.20937499999999	2	-1	1	0	2	193	0
-56.604687499999997	98.042194696558937	2	-1	3	0	2	-193	0
-98.042194696558909	56.604687500000018	2	-1	2	0	2	193	0
-113.20937499999999	4.2632564145606011e-014	2	-1	1	0	2	-193	0
-98.042194696558951	-56.60468749999994	2	-1	3	0	2	193	0
-56.604687499999983	-98.042194696558937	2	-1	2	0	2	-193	0
4.9737991503207013e-014	-113.20937499999999	2	-1	1	0	2	193	0
56.604687499999983	-98.042194696558937	2	-1	3	0	2	-193	0
98.042194696558937	-56.604687499999983	2	-1	2	0	2	193	0
124.40312499999999	0	2	-1	1	0	2	-193	0
107.73626656017099	62.201562499999994	2	-1	3	0	2	193	0
62.201562499999987	107.736266560171	2	-1	2	0	2	-193	0
1.4210854715202004e-014	124.40312499999999	2	-1	1	0	2	193	0
-62.201562499999994	107.73626656017099	2	-1	3	0	2	-193	0
-107.73626656017098	62.201562500000016	2	-1	2	0	2	193	0
-124.403125	4.6185277824406512e-014	2	-1	1	0	2	-193	0
-107.73626656017102	-62.201562499999937	2	-1	3	0	2	193	0
-62.201562499999973	-107.736266560171	2	-1	2	0	2	-193	0
4.9737991503207013e-014	-124.40312499999999	2	-1	1	0	2	193	0
62.201562499999973	-107.736266560171	2	-1	3	0	2	-193	0
107.736266560171	-62.20156249999998	2	-1	2	0	2	193	0
149.7185030748056	-40.116951990890712	4	-1	0	0	1	1	0
90.257889926936087	-43.465908935936142	3	-1	0	334.28571428571433	11	1	0
43.465908935936142	90.257889926936087	3	-1	0	604.28571428571422	12	1	0
-90.257889926936059	43.46590893593617	3	-1	0	514.28571428571433	13	1	0
-43.465908935936142	-90.257889926936087	3	-1	0	784.28571428571377	14	1	0
44.257798165093192	-21.313432280615288	4	-1	0	0	10	1	0
102.8625	0	1	-1	0	0	0	1	0
180.5	0	1	-1	0	0	0	1	0
266.70354017822132	53.050632565385733	5	-1	0	0	0	1	0
254.792776787577	105.53862374011511	6	-1	0	0	0	1	0
232.5145380117475	155.36124730512449	7	-1	0	0	0	1	0
200.46477246638625	200.46477246638619	8	-1	0	0	0	1	0
159.64707481699	238.92873216379564	9	-1	0	0	0	1	0
111.4428824108908	269.04691814632258	10	-1	0	0	0	1	0
57.565580017758954	289.4017138104104	11	-1	0	0	0	1	0
