[Format]      =  4.0
[Frequency]   =  0
[Precision]   =  1e-008
[MinAngle]    =  30
[DoSmartMesh] =  1
[Depth]       =  1
[LengthUnits] =  millimeters
[ProblemType] =  planar
[Coordinates] =  cartesian
[ACSolver]    =  0
[PrevType]    =  0
[PrevSoln]    =  ""
[Comment]     =  "Add comments here."
[PointProps]   = 0
[BdryProps]   = 0
[BlockProps]  = 11
  <BeginBlock>
    <BlockName> = "Air"
    <Mu_x> = 1
    <Mu_y> = 1
    <H_c> = 0
    <H_cAngle> = 0
    <J_re> = 0
    <J_im> = 0
    <Sigma> = 0
    <d_lam> = 0
    <Phi_h> = 0
    <Phi_hx> = 0
    <Phi_hy> = 0
    <LamType> = 0
    <LamFill> = 1
    <NStrands> = 0
    <WireD> = 0
    <BHPoints> = 0
  <EndBlock>
  <BeginBlock>
    <BlockName> = "18 AWG"
    <Mu_x> = 1
    <Mu_y> = 1
    <H_c> = 0
    <H_cAngle> = 0
    <J_re> = 0
    <J_im> = 0
    <Sigma> = 58
    <d_lam> = 0
    <Phi_h> = 0
    <Phi_hx> = 0
    <Phi_hy> = 0
    <LamType> = 3
    <LamFill> = 1
    <NStrands> = 1
    <WireD> = 1.0239652968433499
    <BHPoints> = 0
  <EndBlock>
  <BeginBlock>
    <BlockName> = "N40"
    <Mu_x> = 1.044
    <Mu_y> = 1.044
    <H_c> = 963000
    <H_cAngle> = 0
    <J_re> = 0
    <J_im> = 0
    <Sigma> = 555000
    <d_lam> = 0
    <Phi_h> = 0
    <Phi_hx> = 0
    <Phi_hy> = 0
    <LamType> = 0
    <LamFill> = 1
    <NStrands> = 0
    <WireD> = 0
    <BHPoints> = 0
  <EndBlock>
  <BeginBlock>
    <BlockName> = "M19_29Ga"
    <Mu_x> = 0
    <Mu_y> = 0
    <H_c> = 0
    <H_cAngle> = 0
    <J_re> = 0
    <J_im> = 0
    <Sigma> = 0
    <d_lam> = 0.35999999999999999
    <Phi_h> = 0
    <Phi_hx> = 0
    <Phi_hy> = 0
    <LamType> = 0
    <LamFill> = 0.91000000000000003
    <NStrands> = 0
    <WireD> = 0
    <BHPoints> = 187
      0	0
      0.51870000000000005	49
      0.66139999999999999	63
      0.72040000000000004	69
      0.76580000000000004	74
      0.80400000000000005	78
      0.83760000000000001	82
      0.86809999999999998	86
      0.89610000000000001	90
      0.92210000000000003	94
      0.9466	98
      0.96970000000000001	102
      0.99170000000000003	106
      1.0127999999999999	110
      1.0328999999999999	114
      1.0524	119
      1.0710999999999999	124
      1.0891999999999999	128
      1.1068	134
      1.1237999999999999	139
      1.1404000000000001	145
      1.1565000000000001	151
      1.1722999999999999	157
      1.1877	164
      1.2027000000000001	172
      1.2174	180
      1.2318	189
      1.2459	199
      1.2598	209
      1.2734000000000001	221
      1.2867	234
      1.2999000000000001	248
      1.3128	264
      1.3254999999999999	282
      1.3380000000000001	302
      1.3503000000000001	324
      1.3625	349
      1.3744000000000001	377
      1.3862000000000001	409
      1.3978999999999999	446
      1.4094	486
      1.4207000000000001	532
      1.4319	584
      1.4430000000000001	641
      1.4539	705
      1.4646999999999999	776
      1.4754	855
      1.486	942
      1.4964999999999999	1037
      1.5067999999999999	1141
      1.5169999999999999	1256
      1.5271999999999999	1380
      1.5371999999999999	1515
      1.5471999999999999	1661
      1.5569999999999999	1818
      1.5667	1987
      1.5764	2167
      1.5860000000000001	2357
      1.5954999999999999	2558
      1.6049	2769
      1.6142000000000001	2990
      1.6234	3220
      1.6326000000000001	3459
      1.6416999999999999	3706
      1.6507000000000001	3961
      1.6597	4224
      1.6685000000000001	4495
      1.6773	4773
      1.6860999999999999	5058
      1.6948000000000001	5352
      1.7034	5653
      1.7119	5962
      1.7203999999999999	6280
      1.7289000000000001	6606
      1.7372000000000001	6942
      1.7456	7286
      1.7538	7641
      1.762	8007
      1.7702	8384
      1.7783	8773
      1.7863	9175
      1.7943	9590
      1.8023	10020
      1.8102	10466
      1.8180000000000001	10929
      1.8258000000000001	11409
      1.8335999999999999	11909
      1.8412999999999999	12430
      1.849	12972
      1.8566	13539
      1.8642000000000001	14132
      1.8716999999999999	14752
      1.8792	15402
      1.8867	16085
      1.8940999999999999	16802
      1.9014	17557
      1.9088000000000001	18353
      1.9160999999999999	19192
      1.9233	20078
      1.9306000000000001	21016
      1.9377	22008
      1.9449000000000001	23059
      1.952	24174
      1.9591000000000001	25357
      1.9661	26614
      1.9731000000000001	27948
      1.9801	29367
      1.9870000000000001	30873
      1.994	32474
      2.0007999999999999	34174
      2.0076999999999998	35978
      2.0145	37891
      2.0213000000000001	39915
      2.028	42056
      2.0348000000000002	44315
      2.0413999999999999	46694
      2.0480999999999998	49194
      2.0547	51814
      2.0613999999999999	54555
      2.0678999999999998	57412
      2.0745	60385
      2.081	63468
      2.0874999999999999	66657
      2.0939999999999999	69947
      2.1004	73333
      2.1067999999999998	76809
      2.1132	80369
      2.1196000000000002	84007
      2.1259000000000001	87716
      2.1322000000000001	91492
      2.1385000000000001	95328
      2.1448	99220
      2.1509999999999998	103162
      2.1573000000000002	107149
      2.1634000000000002	111177
      2.1696	115242
      2.1758000000000002	119339
      2.1819000000000002	123466
      2.1880000000000002	127619
      2.1941000000000002	131794
      2.2000999999999999	135990
      2.2061999999999999	140203
      2.2122000000000002	144432
      2.2181999999999999	148673
      2.2242000000000002	152926
      2.2301000000000002	157188
      2.2360000000000002	161458
      2.242	165734
      2.2477999999999998	170015
      2.2536999999999998	174300
      2.2595999999999998	178587
      2.2654000000000001	182876
      2.2711999999999999	187166
      2.2770000000000001	191455
      2.2827999999999999	195743
      2.2885	200030
      2.2942999999999998	204314
      2.2999999999999998	208595
      2.3056999999999999	212872
      2.3113999999999999	217146
      2.3170000000000002	221415
      2.3227000000000002	225679
      2.3283	229938
      2.3338999999999999	234191
      2.3395000000000001	238438
      2.3451	242679
      2.3506999999999998	246914
      2.3561999999999999	251142
      2.3616999999999999	255362
      2.3672	259576
      2.3727	263783
      2.3782000000000001	267982
      2.3837000000000002	272173
      2.3891	276357
      2.3944999999999999	280533
      2.3999999999999999	284701
      2.4053	288860
      2.4106999999999998	293012
      2.4161000000000001	297155
      2.4215	301290
      2.4268000000000001	305417
      2.4321000000000002	309536
      2.4373999999999998	313646
      2.4426999999999999	317747
      2.448	321840
      2.4533	325924
      2.4584999999999999	330000
  <EndBlock>
  <BeginBlock>
    <BlockName> = "u1"
    <Mu_x> = 0.37737277525645235
    <Mu_y> = 0.37737277525645235
    <H_c> = 0
    <H_cAngle> = 0
    <J_re> = 0
    <J_im> = 0
    <Sigma> = 0
    <d_lam> = 0
    <Phi_h> = 0
    <Phi_hx> = 0
    <Phi_hy> = 0
    <LamType> = 0
    <LamFill> = 1
    <NStrands> = 0
    <WireD> = 0
    <BHPoints> = 0
  <EndBlock>
  <BeginBlock>
    <BlockName> = "u2"
    <Mu_x> = 7.7200304346442108
    <Mu_y> = 7.7200304346442108
    <H_c> = 0
    <H_cAngle> = 0
    <J_re> = 0
    <J_im> = 0
    <Sigma> = 0
    <d_lam> = 0
    <Phi_h> = 0
    <Phi_hx> = 0
    <Phi_hy> = 0
    <LamType> = 0
    <LamFill> = 1
    <NStrands> = 0
    <WireD> = 0
    <BHPoints> = 0
  <EndBlock>
  <BeginBlock>
    <BlockName> = "u3"
    <Mu_x> = 0.069449425895143593
    <Mu_y> = 0.069449425895143593
    <H_c> = 0
    <H_cAngle> = 0
    <J_re> = 0
    <J_im> = 0
    <Sigma> = 0
    <d_lam> = 0
    <Phi_h> = 0
    <Phi_hx> = 0
    <Phi_hy> = 0
    <LamType> = 0
    <LamFill> = 1
    <NStrands> = 0
    <WireD> = 0
    <BHPoints> = 0
  <EndBlock>
  <BeginBlock>
    <BlockName> = "u4"
    <Mu_x> = 23.31949550539958
    <Mu_y> = 23.31949550539958
    <H_c> = 0
    <H_cAngle> = 0
    <J_re> = 0
    <J_im> = 0
    <Sigma> = 0
    <d_lam> = 0
    <Phi_h> = 0
    <Phi_hx> = 0
    <Phi_hy> = 0
    <LamType> = 0
    <LamFill> = 1
    <NStrands> = 0
    <WireD> = 0
    <BHPoints> = 0
  <EndBlock>
  <BeginBlock>
    <BlockName> = "u5"
    <Mu_x> = 0.026883543752277105
    <Mu_y> = 0.026883543752277105
    <H_c> = 0
    <H_cAngle> = 0
    <J_re> = 0
    <J_im> = 0
    <Sigma> = 0
    <d_lam> = 0
    <Phi_h> = 0
    <Phi_hx> = 0
    <Phi_hy> = 0
    <LamType> = 0
    <LamFill> = 1
    <NStrands> = 0
    <WireD> = 0
    <BHPoints> = 0
  <EndBlock>
  <BeginBlock>
    <BlockName> = "u6"
    <Mu_x> = 63.839650875508823
    <Mu_y> = 63.839650875508823
    <H_c> = 0
    <H_cAngle> = 0
    <J_re> = 0
    <J_im> = 0
    <Sigma> = 0
    <d_lam> = 0
    <Phi_h> = 0
    <Phi_hx> = 0
    <Phi_hy> = 0
    <LamType> = 0
    <LamFill> = 1
    <NStrands> = 0
    <WireD> = 0
    <BHPoints> = 0
  <EndBlock>
  <BeginBlock>
    <BlockName> = "u7"
    <Mu_x> = 0.0070407582729502555
    <Mu_y> = 0.0070407582729502555
    <H_c> = 0
    <H_cAngle> = 0
    <J_re> = 0
    <J_im> = 0
    <Sigma> = 0
    <d_lam> = 0
    <Phi_h> = 0
    <Phi_hx> = 0
    <Phi_hy> = 0
    <LamType> = 0
    <LamFill> = 1
    <NStrands> = 0
    <WireD> = 0
    <BHPoints> = 0
  <EndBlock>
[CircuitProps]  = 3
  <BeginCircuit>
    <CircuitName> = "U"
    <TotalAmps_re> = 3.628773615858039
    <TotalAmps_im> = 0
    <CircuitType> = 1
  <EndCircuit>
  <BeginCircuit>
    <CircuitName> = "V"
    <TotalAmps_re> = -5.755095275104205
    <TotalAmps_im> = -0
    <CircuitType> = 1
  <EndCircuit>
  <BeginCircuit>
    <CircuitName> = "W"
    <TotalAmps_re> = 2.1263216592461633
    <TotalAmps_im> = 0
    <CircuitType> = 1
  <EndCircuit>
[NumPoints] = 190
116.65615185667205	-31.25792168211769	0	0
120.65599215198112	-5.277024892247919	0	0
107.12966676855548	-55.75795846290103	0	0
122.58784380455927	-5.7946629824529587	0	0
109.06151842113363	-56.27559655310607	0	0
124.53820374045009	-7.6237737058881763	0	0
111.66513503385607	-55.666720168222042	0	0
145.84891443348738	-13.333961426220807	0	0
167.06394294245129	-19.018511182600928	0	0
132.97584572689334	-61.376907888554669	0	0
154.19087423585725	-67.061457644934791	0	0
168.14298914638496	0	0	0
145.61610006902052	-84.071494573192481	0	0
146.45716223094948	7.1054273576010019e-015	0	0
126.83562305818107	-73.228581115474753	0	0
116.65615185667207	31.257921682117683	0	0
107.1296667685555	55.75795846290103	0	0
120.65599215198114	5.2770248922479155	0	0
109.06151842113363	56.27559655310607	0	0
122.58784380455928	5.7946629824529552	0	0
111.66513503385606	55.666720168222042	0	0
124.53820374045009	7.6237737058881798	0	0
132.97584572689334	61.376907888554662	0	0
154.19087423585725	67.061457644934791	0	0
145.84891443348738	13.333961426220803	0	0
167.06394294245126	19.018511182600925	0	0
145.61610006902055	84.071494573192467	0	0
126.83562305818111	73.228581115474753	0	0
85.398230174554371	85.398230174554357	0	0
64.898033689080123	101.85264187630756	0	0
101.85264187630757	64.898033689080094	0	0
66.312247251453215	103.26685543868066	0	0
103.26685543868066	66.312247251453201	0	0
68.871483572228044	104.04136132796786	0	0
104.04136132796791	68.87148357222803	0	0
84.472006544932697	119.64188430067253	0	0
100.00248529751649	135.1723630532563	0	0
119.64188430067254	84.472006544932668	0	0
135.17236305325633	100.00248529751646	0	0
84.071494573192496	145.61610006902049	0	0
73.228581115474768	126.83562305818107	0	0
31.257921682117697	116.65615185667205	0	0
5.2770248922479261	120.65599215198112	0	0
55.75795846290103	107.12966676855548	0	0
5.7946629824529658	122.58784380455927	0	0
56.27559655310607	109.06151842113363	0	0
7.6237737058881834	124.53820374045009	0	0
55.666720168222049	111.66513503385607	0	0
13.333961426220814	145.84891443348738	0	0
19.018511182600939	167.06394294245129	0	0
61.376907888554683	132.97584572689334	0	0
67.061457644934805	154.19087423585725	0	0
7.1054273576010019e-015	168.14298914638496	0	0
0	146.45716223094948	0	0
-31.257921682117669	116.65615185667207	0	0
-55.757958462901001	107.12966676855548	0	0
-5.2770248922478942	120.65599215198114	0	0
-56.275596553106034	109.06151842113363	0	0
-5.7946629824529374	122.58784380455927	0	0
-55.666720168222028	111.66513503385606	0	0
-7.6237737058881514	124.53820374045007	0	0
-61.376907888554648	132.97584572689334	0	0
-67.061457644934762	154.19087423585725	0	0
-13.333961426220789	145.84891443348735	0	0
-19.018511182600896	167.06394294245126	0	0
-84.071494573192439	145.61610006902052	0	0
-73.228581115474725	126.8356230581811	0	0
-85.398230174554385	85.398230174554357	0	0
-101.85264187630759	64.898033689080108	0	0
-64.898033689080108	101.85264187630756	0	0
-103.26685543868068	66.312247251453186	0	0
-66.312247251453215	103.26685543868065	0	0
-104.04136132796788	68.87148357222803	0	0
-68.871483572228058	104.04136132796788	0	0
-119.64188430067254	84.472006544932668	0	0
-135.17236305325633	100.00248529751644	0	0
-84.472006544932711	119.64188430067253	0	0
-100.0024852975165	135.1723630532563	0	0
-145.61610006902052	84.071494573192467	0	0
-126.83562305818107	73.228581115474725	0	0
-116.65615185667205	31.257921682117704	0	0
-120.65599215198112	5.2770248922479333	0	0
-107.12966676855547	55.757958462901044	0	0
-122.58784380455927	5.794662982452973	0	0
-109.06151842113363	56.275596553106084	0	0
-124.53820374045009	7.6237737058881905	0	0
-111.66513503385606	55.666720168222056	0	0
-145.84891443348738	13.333961426220824	0	0
-167.06394294245126	19.01851118260095	0	0
-132.97584572689334	61.376907888554683	0	0
-154.19087423585725	67.061457644934819	0	0
-168.14298914638496	2.1316282072803006e-014	0	0
-146.45716223094948	7.1054273576010019e-015	0	0
-116.65615185667207	-31.257921682117708	0	0
-107.12966676855548	-55.757958462901044	0	0
-120.65599215198114	-5.2770248922479404	0	0
-109.06151842113361	-56.275596553106084	0	0
-122.58784380455927	-5.7946629824529801	0	0
-111.66513503385606	-55.666720168222071	0	0
-124.53820374045007	-7.6237737058881976	0	0
-132.97584572689334	-61.376907888554697	0	0
-154.19087423585722	-67.061457644934819	0	0
-145.84891443348738	-13.333961426220831	0	0
-167.06394294245129	-19.018511182600946	0	0
-145.61610006902052	-84.07149457319251	0	0
-126.83562305818108	-73.228581115474768	0	0
-85.398230174554413	-85.398230174554328	0	0
-64.898033689080165	-101.85264187630753	0	0
-101.85264187630759	-64.898033689080052	0	0
-66.312247251453243	-103.26685543868064	0	0
-103.26685543868068	-66.312247251453144	0	0
-68.871483572228101	-104.04136132796785	0	0
-104.04136132796791	-68.871483572227987	0	0
-84.472006544932754	-119.64188430067249	0	0
-100.00248529751654	-135.17236305325628	0	0
-119.64188430067257	-84.47200654493264	0	0
-135.17236305325636	-100.0024852975164	0	0
-84.071494573192552	-145.61610006902046	0	0
-73.22858111547481	-126.83562305818103	0	0
-31.257921682117711	-116.65615185667205	0	0
-5.2770248922479404	-120.65599215198112	0	0
-55.757958462901044	-107.12966676855547	0	0
-5.7946629824529801	-122.58784380455927	0	0
-56.275596553106084	-109.06151842113361	0	0
-7.6237737058881976	-124.53820374045009	0	0
-55.666720168222056	-111.66513503385606	0	0
-13.333961426220831	-145.84891443348735	0	0
-19.01851118260096	-167.06394294245126	0	0
-61.376907888554697	-132.97584572689334	0	0
-67.061457644934819	-154.19087423585725	0	0
-2.8421709430404007e-014	-168.14298914638496	0	0
-2.1316282072803006e-014	-146.45716223094948	0	0
31.257921682117708	-116.65615185667207	0	0
55.757958462901044	-107.12966676855548	0	0
5.2770248922479404	-120.65599215198114	0	0
56.275596553106084	-109.06151842113361	0	0
5.7946629824529801	-122.58784380455927	0	0
55.666720168222071	-111.66513503385606	0	0
7.6237737058881976	-124.53820374045007	0	0
61.376907888554697	-132.97584572689334	0	0
67.061457644934819	-154.19087423585722	0	0
13.333961426220831	-145.84891443348738	0	0
19.018511182600946	-167.06394294245129	0	0
84.07149457319251	-145.61610006902052	0	0
73.228581115474768	-126.83562305818108	0	0
85.398230174554328	-85.398230174554413	0	0
101.85264187630753	-64.898033689080165	0	0
64.898033689080052	-101.85264187630759	0	0
103.26685543868064	-66.312247251453243	0	0
66.312247251453144	-103.26685543868068	0	0
104.04136132796785	-68.871483572228101	0	0
68.871483572227987	-104.04136132796791	0	0
119.64188430067249	-84.472006544932754	0	0
135.17236305325628	-100.00248529751654	0	0
84.47200654493264	-119.64188430067257	0	0
100.0024852975164	-135.17236305325636	0	0
173.8666487320323	-46.58742811845373	0	0
-173.8666487320323	46.587428118453751	0	0
102.42286485164965	-49.324252098108218	0	10
107.30141542068185	37.546389149627636	0	10
37.546389149627636	-107.30141542068183	0	10
104.45307754895637	-50.301951003911903	0	10
109.42833011245096	38.290628788891794	0	10
38.290628788891823	-109.42833011245094	0	10
49.324252098108218	102.42286485164965	0	10
-37.546389149627636	107.30141542068185	0	10
50.301951003911903	104.45307754895637	0	10
-38.290628788891794	109.42833011245096	0	10
-102.42286485164965	49.324252098108218	0	10
-107.30141542068185	-37.546389149627593	0	10
-104.45307754895637	50.301951003911903	0	10
-109.42833011245096	-38.29062878889178	0	10
-49.324252098108261	-102.42286485164966	0	10
-50.301951003911931	-104.4530775489564	0	10
0	270	0	0
0	-270	0	0
0	-273.85714285714289	0	0
0	273.85714285714289	0	0
0	-277.71428571428572	0	0
0	277.71428571428572	0	0
0	-281.57142857142861	0	0
0	281.57142857142861	0	0
0	-285.42857142857144	0	0
0	285.42857142857144	0	0
0	-289.28571428571428	0	0
0	289.28571428571428	0	0
0	-293.14285714285717	0	0
0	293.14285714285717	0	0
0	-297.00000000000006	0	0
0	297.00000000000006	0	0
[NumSegments] = 100
1	3	-1	0	0	0
2	4	-1	0	0	0
3	5	-1	0	0	0
4	6	-1	0	0	0
5	7	-1	0	0	0
7	8	-1	0	0	0
6	9	-1	0	0	0
9	10	-1	0	0	0
16	18	-1	0	0	0
17	19	-1	0	0	0
18	20	-1	0	0	0
19	21	-1	0	0	0
20	22	-1	0	0	0
22	23	-1	0	0	0
21	24	-1	0	0	0
24	25	-1	0	0	0
29	31	-1	0	0	0
30	32	-1	0	0	0
31	33	-1	0	0	0
32	34	-1	0	0	0
33	35	-1	0	0	0
35	36	-1	0	0	0
34	37	-1	0	0	0
37	38	-1	0	0	0
42	44	-1	0	0	0
43	45	-1	0	0	0
44	46	-1	0	0	0
45	47	-1	0	0	0
46	48	-1	0	0	0
48	49	-1	0	0	0
47	50	-1	0	0	0
50	51	-1	0	0	0
55	57	-1	0	0	0
56	58	-1	0	0	0
57	59	-1	0	0	0
58	60	-1	0	0	0
59	61	-1	0	0	0
61	62	-1	0	0	0
60	63	-1	0	0	0
63	64	-1	0	0	0
68	70	-1	0	0	0
69	71	-1	0	0	0
70	72	-1	0	0	0
71	73	-1	0	0	0
72	74	-1	0	0	0
74	75	-1	0	0	0
73	76	-1	0	0	0
76	77	-1	0	0	0
81	83	-1	0	0	0
82	84	-1	0	0	0
83	85	-1	0	0	0
84	86	-1	0	0	0
85	87	-1	0	0	0
87	88	-1	0	0	0
86	89	-1	0	0	0
89	90	-1	0	0	0
94	96	-1	0	0	0
95	97	-1	0	0	0
96	98	-1	0	0	0
97	99	-1	0	0	0
98	100	-1	0	0	0
100	101	-1	0	0	0
99	102	-1	0	0	0
102	103	-1	0	0	0
107	109	-1	0	0	0
108	110	-1	0	0	0
109	111	-1	0	0	0
110	112	-1	0	0	0
111	113	-1	0	0	0
113	114	-1	0	0	0
112	115	-1	0	0	0
115	116	-1	0	0	0
120	122	-1	0	0	0
121	123	-1	0	0	0
122	124	-1	0	0	0
123	125	-1	0	0	0
124	126	-1	0	0	0
126	127	-1	0	0	0
125	128	-1	0	0	0
128	129	-1	0	0	0
133	135	-1	0	0	0
134	136	-1	0	0	0
135	137	-1	0	0	0
136	138	-1	0	0	0
137	139	-1	0	0	0
139	140	-1	0	0	0
138	141	-1	0	0	0
141	142	-1	0	0	0
146	148	-1	0	0	0
147	149	-1	0	0	0
148	150	-1	0	0	0
149	151	-1	0	0	0
150	152	-1	0	0	0
152	153	-1	0	0	0
151	154	-1	0	0	0
154	155	-1	0	0	0
159	162	-1	0	0	10
160	163	-1	0	0	10
165	167	-1	0	0	10
169	171	-1	0	0	10
[NumArcSegments] = 118
0	1	12.495700907452427	1	0	0	0	1
2	0	12.495700907452427	1	0	0	0	1
8	11	6.7607313454767999	1	0	0	0	1
12	10	6.7607313454767999	1	0	0	0	1
7	13	6.7607313454767999	1	0	0	0	1
14	9	6.7607313454767999	1	0	0	0	1
15	16	12.495700907452427	1	0	0	0	1
17	15	12.495700907452427	1	0	0	0	1
23	26	6.7607313454767999	1	0	0	0	1
11	25	6.7607313454767999	1	0	0	0	1
22	27	6.7607313454767999	1	0	0	0	1
13	24	6.7607313454767999	1	0	0	0	1
28	29	12.495700907452427	1	0	0	0	1
30	28	12.495700907452427	1	0	0	0	1
36	39	6.7607313454767999	1	0	0	0	1
26	38	6.7607313454767999	1	0	0	0	1
35	40	6.7607313454767999	1	0	0	0	1
27	37	6.7607313454767999	1	0	0	0	1
41	42	12.495700907452427	1	0	0	0	1
43	41	12.495700907452427	1	0	0	0	1
49	52	6.7607313454767999	1	0	0	0	1
39	51	6.7607313454767999	1	0	0	0	1
48	53	6.7607313454767999	1	0	0	0	1
40	50	6.7607313454767999	1	0	0	0	1
54	55	12.495700907452427	1	0	0	0	1
56	54	12.495700907452427	1	0	0	0	1
62	65	6.7607313454767999	1	0	0	0	1
52	64	6.7607313454767999	1	0	0	0	1
61	66	6.7607313454767999	1	0	0	0	1
53	63	6.7607313454767999	1	0	0	0	1
67	68	12.495700907452427	1	0	0	0	1
69	67	12.495700907452427	1	0	0	0	1
75	78	6.7607313454767999	1	0	0	0	1
65	77	6.7607313454767999	1	0	0	0	1
74	79	6.7607313454767999	1	0	0	0	1
66	76	6.7607313454767999	1	0	0	0	1
80	81	12.495700907452427	1	0	0	0	1
82	80	12.495700907452427	1	0	0	0	1
88	91	6.7607313454767999	1	0	0	0	1
78	90	6.7607313454767999	1	0	0	0	1
87	92	6.7607313454767999	1	0	0	0	1
79	89	6.7607313454767999	1	0	0	0	1
93	94	12.495700907452427	1	0	0	0	1
95	93	12.495700907452427	1	0	0	0	1
101	104	6.7607313454767999	1	0	0	0	1
91	103	6.7607313454767999	1	0	0	0	1
100	105	6.7607313454767999	1	0	0	0	1
92	102	6.7607313454767999	1	0	0	0	1
106	107	12.495700907452427	1	0	0	0	1
108	106	12.495700907452427	1	0	0	0	1
114	117	6.7607313454767999	1	0	0	0	1
104	116	6.7607313454767999	1	0	0	0	1
113	118	6.7607313454767999	1	0	0	0	1
105	115	6.7607313454767999	1	0	0	0	1
119	120	12.495700907452427	1	0	0	0	1
121	119	12.495700907452427	1	0	0	0	1
127	130	6.7607313454767999	1	0	0	0	1
117	129	6.7607313454767999	1	0	0	0	1
126	131	6.7607313454767999	1	0	0	0	1
118	128	6.7607313454767999	1	0	0	0	1
132	133	12.495700907452427	1	0	0	0	1
134	132	12.495700907452427	1	0	0	0	1
140	143	6.7607313454767999	1	0	0	0	1
130	142	6.7607313454767999	1	0	0	0	1
139	144	6.7607313454767999	1	0	0	0	1
131	141	6.7607313454767999	1	0	0	0	1
145	146	12.495700907452427	1	0	0	0	1
147	145	12.495700907452427	1	0	0	0	1
153	12	6.7607313454767999	1	0	0	0	1
143	155	6.7607313454767999	1	0	0	0	1
152	14	6.7607313454767999	1	0	0	0	1
144	154	6.7607313454767999	1	0	0	0	1
156	157	180	1	0	0	0	1
157	156	180	1	0	0	0	1
1	17	5.0085981850951438	1	0	0	0	1
16	30	5.0085981850951402	1	0	0	0	1
29	43	5.0085981850951518	1	0	0	0	1
42	56	5.0085981850951358	1	0	0	0	1
55	69	5.0085981850951597	1	0	0	0	1
68	82	5.0085981850951384	1	0	0	0	1
81	95	5.0085981850951615	1	0	0	0	1
94	108	5.0085981850951091	1	0	0	0	1
107	121	5.0085981850951695	1	0	0	0	1
120	134	5.0085981850951642	1	0	0	0	1
133	147	5.0085981850951109	1	0	0	0	1
146	2	5.0085981850951775	1	0	0	0	1
158	159	45	1	0	0	10	1
160	158	45	1	0	0	10	1
161	162	45	1	0	0	10	1
163	161	45	1	0	0	10	1
164	165	45	1	0	0	10	1
159	164	45	1	0	0	10	1
166	167	45	1	0	0	10	1
162	166	45	1	0	0	10	1
168	169	45	1	0	0	10	1
165	168	45	1	0	0	10	1
170	171	45	1	0	0	10	1
167	170	45	1	0	0	10	1
172	160	45	1	0	0	10	1
169	172	45	1	0	0	10	1
173	163	45	1	0	0	10	1
171	173	45	1	0	0	10	1
174	175	180	1	0	0	0	1
175	174	180	1	0	0	0	1
176	177	180	1	0	0	0	1
177	176	180	1	0	0	0	1
178	179	180	1	0	0	0	1
179	178	180	1	0	0	0	1
180	181	180	1	0	0	0	1
181	180	180	1	0	0	0	1
182	183	180	1	0	0	0	1
183	182	180	1	0	0	0	1
184	185	180	1	0	0	0	1
185	184	180	1	0	0	0	1
186	187	180	1	0	0	0	1
187	186	180	1	0	0	0	1
188	189	180	1	0	0	0	1
189	188	180	1	0	0	0	1
[NumHoles] = 0
[NumBlockLabels] = 39
135.61424877323179	0	2	-1	1	0	2	-284	0
117.44538455276138	67.807124386615868	2	-1	3	0	2	284	0
67.807124386615897	117.44538455276138	2	-1	2	0	2	-284	0
2.1316282072803006e-014	135.61424877323179	2	-1	1	0	2	284	0
-67.807124386615868	117.44538455276138	2	-1	3	0	2	-284	0
-117.44538455276135	67.807124386615925	2	-1	2	0	2	284	0
-135.61424877323179	5.6843418860808015e-014	2	-1	1	0	2	-284	0
-117.44538455276141	-67.80712438661584	2	-1	3	0	2	284	0
-67.807124386615868	-117.4453845527614	2	-1	2	0	2	-284	0
5.6843418860808015e-014	-135.61424877323179	2	-1	1	0	2	284	0
67.807124386615854	-117.4453845527614	2	-1	3	0	2	-284	0
117.4453845527614	-67.807124386615897	2	-1	2	0	2	284	0
157.30007568866722	0	2	-1	1	0	2	-284	0
136.2258615636008	78.650037844333596	2	-1	3	0	2	284	0
78.65003784433361	136.2258615636008	2	-1	2	0	2	-284	0
2.1316282072803006e-014	157.30007568866722	2	-1	1	0	2	284	0
-78.650037844333596	136.2258615636008	2	-1	3	0	2	-284	0
-136.22586156360074	78.650037844333639	2	-1	2	0	2	284	0
-157.30007568866722	6.3948846218409017e-014	2	-1	1	0	2	-284	0
-136.22586156360083	-78.650037844333553	2	-1	3	0	2	284	0
-78.650037844333582	-136.2258615636008	2	-1	2	0	2	-284	0
6.3948846218409017e-014	-157.30007568866722	2	-1	1	0	2	284	0
78.650037844333582	-136.2258615636008	2	-1	3	0	2	-284	0
136.2258615636008	-78.650037844333596	2	-1	2	0	2	284	0
168.14015222898402	-45.053018005002301	4	-1	0	0	1	1	0
103.43797120030302	-49.81310155101005	3	-1	0	334.28571428571433	11	1	0
49.813101551010078	103.43797120030304	3	-1	0	604.28571428571422	12	1	0
-103.43797120030304	49.813101551010078	3	-1	0	514.28571428571433	13	1	0
-49.813101551010078	-103.43797120030304	3	-1	0	784.28571428571377	14	1	0
51.211432425824825	-24.662126049054109	4	-1	0	0	10	1	0
118.35275246510318	0	1	-1	0	0	0	1	0
180.5	0	1	-1	0	0	0	1	0
266.70354017822132	53.050632565385733	5	-1	0	0	0	1	0
254.792776787577	105.53862374011511	6	-1	0	0	0	1	0
232.5145380117475	155.36124730512449	7	-1	0	0	0	1	0
200.46477246638625	200.46477246638619	8	-1	0	0	0	1	0
159.64707481699	238.92873216379564	9	-1	0	0	0	1	0
111.4428824108908	269.04691814632258	10	-1	0	0	0	1	0
57.565580017758954	289.4017138104104	11	-1	0	0	0	1	0
